
---------- Begin Simulation Statistics ----------
final_tick                                59901516000                       # Number of ticks from beginning of simulation (restored from checkpoints and never reset)
host_inst_rate                                 369596                       # Simulator instruction rate (inst/s)
host_mem_usage                                 695788                       # Number of bytes of host memory used
host_op_rate                                   373672                       # Simulator op (including micro ops) rate (op/s)
host_seconds                                   270.57                       # Real time elapsed on the host
host_tick_rate                              221393521                       # Simulator tick rate (ticks/s)
sim_freq                                 1000000000000                       # Frequency of simulated ticks
sim_insts                                   100000000                       # Number of instructions simulated
sim_ops                                     101102729                       # Number of ops (including micro ops) simulated
sim_seconds                                  0.059902                       # Number of seconds simulated
sim_ticks                                 59901516000                       # Number of ticks simulated
system.cpu.branchPred.BTBCorrect                    0                       # Number of correct BTB predictions (this stat may not work properly.
system.cpu.branchPred.BTBHitPct             84.201421                       # BTB Hit Percentage
system.cpu.branchPred.BTBHits                 4081983                       # Number of BTB hits
system.cpu.branchPred.BTBLookups              4847879                       # Number of BTB lookups
system.cpu.branchPred.RASInCorrect                 19                       # Number of incorrect RAS predictions.
system.cpu.branchPred.condIncorrect            352117                       # Number of conditional branches incorrect
system.cpu.branchPred.condPredicted           5087832                       # Number of conditional branches predicted
system.cpu.branchPred.indirectHits             102865                       # Number of indirect target hits.
system.cpu.branchPred.indirectLookups          676163                       # Number of indirect predictor lookups.
system.cpu.branchPred.indirectMisses           573298                       # Number of indirect misses.
system.cpu.branchPred.lookups                 6496504                       # Number of BP lookups
system.cpu.branchPred.usedRAS                  314237                       # Number of times the RAS was used to get a target.
system.cpu.branchPredindirectMispredicted        37627                       # Number of mispredicted indirect branches.
system.cpu.committedInsts                   100000000                       # Number of instructions committed
system.cpu.committedOps                     101102729                       # Number of ops (including micro ops) committed
system.cpu.cpi                               1.198030                       # CPI: cycles per instruction
system.cpu.discardedOps                        964958                       # Number of ops (including micro ops) which were discarded before commit
system.cpu.dtb.accesses                             0                       # DTB accesses
system.cpu.dtb.align_faults                         0                       # Number of TLB faults due to alignment restrictions
system.cpu.dtb.domain_faults                        0                       # Number of TLB faults due to domain restrictions
system.cpu.dtb.flush_entries                        0                       # Number of entries that have been flushed from TLB
system.cpu.dtb.flush_tlb                            0                       # Number of times complete TLB was flushed
system.cpu.dtb.flush_tlb_asid                       0                       # Number of times TLB was flushed by ASID
system.cpu.dtb.flush_tlb_mva                        0                       # Number of times TLB was flushed by MVA
system.cpu.dtb.flush_tlb_mva_asid                   0                       # Number of times TLB was flushed by MVA & ASID
system.cpu.dtb.hits                                 0                       # DTB hits
system.cpu.dtb.inst_accesses                        0                       # ITB inst accesses
system.cpu.dtb.inst_hits                            0                       # ITB inst hits
system.cpu.dtb.inst_misses                          0                       # ITB inst misses
system.cpu.dtb.misses                               0                       # DTB misses
system.cpu.dtb.perms_faults                         0                       # Number of TLB faults due to permissions restrictions
system.cpu.dtb.prefetch_faults                      0                       # Number of TLB faults due to prefetch
system.cpu.dtb.read_accesses                        0                       # DTB read accesses
system.cpu.dtb.read_hits                            0                       # DTB read hits
system.cpu.dtb.read_misses                          0                       # DTB read misses
system.cpu.dtb.stage2_mmu.stage2_tlb.accesses            0                       # DTB accesses
system.cpu.dtb.stage2_mmu.stage2_tlb.align_faults            0                       # Number of TLB faults due to alignment restrictions
system.cpu.dtb.stage2_mmu.stage2_tlb.domain_faults            0                       # Number of TLB faults due to domain restrictions
system.cpu.dtb.stage2_mmu.stage2_tlb.flush_entries            0                       # Number of entries that have been flushed from TLB
system.cpu.dtb.stage2_mmu.stage2_tlb.flush_tlb            0                       # Number of times complete TLB was flushed
system.cpu.dtb.stage2_mmu.stage2_tlb.flush_tlb_asid            0                       # Number of times TLB was flushed by ASID
system.cpu.dtb.stage2_mmu.stage2_tlb.flush_tlb_mva            0                       # Number of times TLB was flushed by MVA
system.cpu.dtb.stage2_mmu.stage2_tlb.flush_tlb_mva_asid            0                       # Number of times TLB was flushed by MVA & ASID
system.cpu.dtb.stage2_mmu.stage2_tlb.hits            0                       # DTB hits
system.cpu.dtb.stage2_mmu.stage2_tlb.inst_accesses            0                       # ITB inst accesses
system.cpu.dtb.stage2_mmu.stage2_tlb.inst_hits            0                       # ITB inst hits
system.cpu.dtb.stage2_mmu.stage2_tlb.inst_misses            0                       # ITB inst misses
system.cpu.dtb.stage2_mmu.stage2_tlb.misses            0                       # DTB misses
system.cpu.dtb.stage2_mmu.stage2_tlb.perms_faults            0                       # Number of TLB faults due to permissions restrictions
system.cpu.dtb.stage2_mmu.stage2_tlb.prefetch_faults            0                       # Number of TLB faults due to prefetch
system.cpu.dtb.stage2_mmu.stage2_tlb.read_accesses            0                       # DTB read accesses
system.cpu.dtb.stage2_mmu.stage2_tlb.read_hits            0                       # DTB read hits
system.cpu.dtb.stage2_mmu.stage2_tlb.read_misses            0                       # DTB read misses
system.cpu.dtb.stage2_mmu.stage2_tlb.walker.walkRequestOrigin_Requested::Data            0                       # Table walker requests started/completed, data/inst
system.cpu.dtb.stage2_mmu.stage2_tlb.walker.walkRequestOrigin_Requested::Inst            0                       # Table walker requests started/completed, data/inst
system.cpu.dtb.stage2_mmu.stage2_tlb.walker.walkRequestOrigin_Requested::total            0                       # Table walker requests started/completed, data/inst
system.cpu.dtb.stage2_mmu.stage2_tlb.walker.walkRequestOrigin_Completed::Data            0                       # Table walker requests started/completed, data/inst
system.cpu.dtb.stage2_mmu.stage2_tlb.walker.walkRequestOrigin_Completed::Inst            0                       # Table walker requests started/completed, data/inst
system.cpu.dtb.stage2_mmu.stage2_tlb.walker.walkRequestOrigin_Completed::total            0                       # Table walker requests started/completed, data/inst
system.cpu.dtb.stage2_mmu.stage2_tlb.walker.walkRequestOrigin::total            0                       # Table walker requests started/completed, data/inst
system.cpu.dtb.stage2_mmu.stage2_tlb.walker.walks            0                       # Table walker walks requested
system.cpu.dtb.stage2_mmu.stage2_tlb.write_accesses            0                       # DTB write accesses
system.cpu.dtb.stage2_mmu.stage2_tlb.write_hits            0                       # DTB write hits
system.cpu.dtb.stage2_mmu.stage2_tlb.write_misses            0                       # DTB write misses
system.cpu.dtb.walker.walkRequestOrigin_Requested::Data            0                       # Table walker requests started/completed, data/inst
system.cpu.dtb.walker.walkRequestOrigin_Requested::Inst            0                       # Table walker requests started/completed, data/inst
system.cpu.dtb.walker.walkRequestOrigin_Requested::total            0                       # Table walker requests started/completed, data/inst
system.cpu.dtb.walker.walkRequestOrigin_Completed::Data            0                       # Table walker requests started/completed, data/inst
system.cpu.dtb.walker.walkRequestOrigin_Completed::Inst            0                       # Table walker requests started/completed, data/inst
system.cpu.dtb.walker.walkRequestOrigin_Completed::total            0                       # Table walker requests started/completed, data/inst
system.cpu.dtb.walker.walkRequestOrigin::total            0                       # Table walker requests started/completed, data/inst
system.cpu.dtb.walker.walks                         0                       # Table walker walks requested
system.cpu.dtb.write_accesses                       0                       # DTB write accesses
system.cpu.dtb.write_hits                           0                       # DTB write hits
system.cpu.dtb.write_misses                         0                       # DTB write misses
system.cpu.fetch2.amo_instructions                  0                       # Number of memory atomic instructions successfully decoded
system.cpu.fetch2.fp_instructions                   0                       # Number of floating point instructions successfully decoded
system.cpu.fetch2.int_instructions           48887289                       # Number of integer instructions successfully decoded
system.cpu.fetch2.load_instructions          40562768                       # Number of memory load instructions successfully decoded
system.cpu.fetch2.store_instructions          6265386                       # Number of memory store instructions successfully decoded
system.cpu.fetch2.vec_instructions                  0                       # Number of SIMD instructions successfully decoded
system.cpu.idleCycles                         3834178                       # Total number of cycles that the object has spent stopped
system.cpu.ipc                               0.834703                       # IPC: instructions per cycle
system.cpu.itb.accesses                             0                       # DTB accesses
system.cpu.itb.align_faults                         0                       # Number of TLB faults due to alignment restrictions
system.cpu.itb.domain_faults                        0                       # Number of TLB faults due to domain restrictions
system.cpu.itb.flush_entries                        0                       # Number of entries that have been flushed from TLB
system.cpu.itb.flush_tlb                            0                       # Number of times complete TLB was flushed
system.cpu.itb.flush_tlb_asid                       0                       # Number of times TLB was flushed by ASID
system.cpu.itb.flush_tlb_mva                        0                       # Number of times TLB was flushed by MVA
system.cpu.itb.flush_tlb_mva_asid                   0                       # Number of times TLB was flushed by MVA & ASID
system.cpu.itb.hits                                 0                       # DTB hits
system.cpu.itb.inst_accesses                        0                       # ITB inst accesses
system.cpu.itb.inst_hits                            0                       # ITB inst hits
system.cpu.itb.inst_misses                          0                       # ITB inst misses
system.cpu.itb.misses                               0                       # DTB misses
system.cpu.itb.perms_faults                         0                       # Number of TLB faults due to permissions restrictions
system.cpu.itb.prefetch_faults                      0                       # Number of TLB faults due to prefetch
system.cpu.itb.read_accesses                        0                       # DTB read accesses
system.cpu.itb.read_hits                            0                       # DTB read hits
system.cpu.itb.read_misses                          0                       # DTB read misses
system.cpu.itb.stage2_mmu.stage2_tlb.accesses            0                       # DTB accesses
system.cpu.itb.stage2_mmu.stage2_tlb.align_faults            0                       # Number of TLB faults due to alignment restrictions
system.cpu.itb.stage2_mmu.stage2_tlb.domain_faults            0                       # Number of TLB faults due to domain restrictions
system.cpu.itb.stage2_mmu.stage2_tlb.flush_entries            0                       # Number of entries that have been flushed from TLB
system.cpu.itb.stage2_mmu.stage2_tlb.flush_tlb            0                       # Number of times complete TLB was flushed
system.cpu.itb.stage2_mmu.stage2_tlb.flush_tlb_asid            0                       # Number of times TLB was flushed by ASID
system.cpu.itb.stage2_mmu.stage2_tlb.flush_tlb_mva            0                       # Number of times TLB was flushed by MVA
system.cpu.itb.stage2_mmu.stage2_tlb.flush_tlb_mva_asid            0                       # Number of times TLB was flushed by MVA & ASID
system.cpu.itb.stage2_mmu.stage2_tlb.hits            0                       # DTB hits
system.cpu.itb.stage2_mmu.stage2_tlb.inst_accesses            0                       # ITB inst accesses
system.cpu.itb.stage2_mmu.stage2_tlb.inst_hits            0                       # ITB inst hits
system.cpu.itb.stage2_mmu.stage2_tlb.inst_misses            0                       # ITB inst misses
system.cpu.itb.stage2_mmu.stage2_tlb.misses            0                       # DTB misses
system.cpu.itb.stage2_mmu.stage2_tlb.perms_faults            0                       # Number of TLB faults due to permissions restrictions
system.cpu.itb.stage2_mmu.stage2_tlb.prefetch_faults            0                       # Number of TLB faults due to prefetch
system.cpu.itb.stage2_mmu.stage2_tlb.read_accesses            0                       # DTB read accesses
system.cpu.itb.stage2_mmu.stage2_tlb.read_hits            0                       # DTB read hits
system.cpu.itb.stage2_mmu.stage2_tlb.read_misses            0                       # DTB read misses
system.cpu.itb.stage2_mmu.stage2_tlb.walker.walkRequestOrigin_Requested::Data            0                       # Table walker requests started/completed, data/inst
system.cpu.itb.stage2_mmu.stage2_tlb.walker.walkRequestOrigin_Requested::Inst            0                       # Table walker requests started/completed, data/inst
system.cpu.itb.stage2_mmu.stage2_tlb.walker.walkRequestOrigin_Requested::total            0                       # Table walker requests started/completed, data/inst
system.cpu.itb.stage2_mmu.stage2_tlb.walker.walkRequestOrigin_Completed::Data            0                       # Table walker requests started/completed, data/inst
system.cpu.itb.stage2_mmu.stage2_tlb.walker.walkRequestOrigin_Completed::Inst            0                       # Table walker requests started/completed, data/inst
system.cpu.itb.stage2_mmu.stage2_tlb.walker.walkRequestOrigin_Completed::total            0                       # Table walker requests started/completed, data/inst
system.cpu.itb.stage2_mmu.stage2_tlb.walker.walkRequestOrigin::total            0                       # Table walker requests started/completed, data/inst
system.cpu.itb.stage2_mmu.stage2_tlb.walker.walks            0                       # Table walker walks requested
system.cpu.itb.stage2_mmu.stage2_tlb.write_accesses            0                       # DTB write accesses
system.cpu.itb.stage2_mmu.stage2_tlb.write_hits            0                       # DTB write hits
system.cpu.itb.stage2_mmu.stage2_tlb.write_misses            0                       # DTB write misses
system.cpu.itb.walker.walkRequestOrigin_Requested::Data            0                       # Table walker requests started/completed, data/inst
system.cpu.itb.walker.walkRequestOrigin_Requested::Inst            0                       # Table walker requests started/completed, data/inst
system.cpu.itb.walker.walkRequestOrigin_Requested::total            0                       # Table walker requests started/completed, data/inst
system.cpu.itb.walker.walkRequestOrigin_Completed::Data            0                       # Table walker requests started/completed, data/inst
system.cpu.itb.walker.walkRequestOrigin_Completed::Inst            0                       # Table walker requests started/completed, data/inst
system.cpu.itb.walker.walkRequestOrigin_Completed::total            0                       # Table walker requests started/completed, data/inst
system.cpu.itb.walker.walkRequestOrigin::total            0                       # Table walker requests started/completed, data/inst
system.cpu.itb.walker.walks                         0                       # Table walker walks requested
system.cpu.itb.write_accesses                       0                       # DTB write accesses
system.cpu.itb.write_hits                           0                       # DTB write hits
system.cpu.itb.write_misses                         0                       # DTB write misses
system.cpu.numCycles                        119803032                       # number of cpu cycles simulated
system.cpu.numFetchSuspends                         0                       # Number of times Execute suspended instruction fetching
system.cpu.numWorkItemsCompleted                    0                       # number of work items this cpu completed
system.cpu.numWorkItemsStarted                      0                       # number of work items this cpu started
system.cpu.op_class_0::No_OpClass                   0      0.00%      0.00% # Class of committed instruction
system.cpu.op_class_0::IntAlu                55115655     54.51%     54.51% # Class of committed instruction
system.cpu.op_class_0::IntMult                 167845      0.17%     54.68% # Class of committed instruction
system.cpu.op_class_0::IntDiv                       0      0.00%     54.68% # Class of committed instruction
system.cpu.op_class_0::FloatAdd                     0      0.00%     54.68% # Class of committed instruction
system.cpu.op_class_0::FloatCmp                     0      0.00%     54.68% # Class of committed instruction
system.cpu.op_class_0::FloatCvt                     0      0.00%     54.68% # Class of committed instruction
system.cpu.op_class_0::FloatMult                    0      0.00%     54.68% # Class of committed instruction
system.cpu.op_class_0::FloatMultAcc                 0      0.00%     54.68% # Class of committed instruction
system.cpu.op_class_0::FloatDiv                     0      0.00%     54.68% # Class of committed instruction
system.cpu.op_class_0::FloatMisc                    0      0.00%     54.68% # Class of committed instruction
system.cpu.op_class_0::FloatSqrt                    0      0.00%     54.68% # Class of committed instruction
system.cpu.op_class_0::SimdAdd                    380      0.00%     54.68% # Class of committed instruction
system.cpu.op_class_0::SimdAddAcc                   0      0.00%     54.68% # Class of committed instruction
system.cpu.op_class_0::SimdAlu                    470      0.00%     54.68% # Class of committed instruction
system.cpu.op_class_0::SimdCmp                    382      0.00%     54.68% # Class of committed instruction
system.cpu.op_class_0::SimdCvt                      0      0.00%     54.68% # Class of committed instruction
system.cpu.op_class_0::SimdMisc                    53      0.00%     54.68% # Class of committed instruction
system.cpu.op_class_0::SimdMult                     0      0.00%     54.68% # Class of committed instruction
system.cpu.op_class_0::SimdMultAcc                  0      0.00%     54.68% # Class of committed instruction
system.cpu.op_class_0::SimdShift                    0      0.00%     54.68% # Class of committed instruction
system.cpu.op_class_0::SimdShiftAcc                 0      0.00%     54.68% # Class of committed instruction
system.cpu.op_class_0::SimdDiv                      0      0.00%     54.68% # Class of committed instruction
system.cpu.op_class_0::SimdSqrt                     0      0.00%     54.68% # Class of committed instruction
system.cpu.op_class_0::SimdFloatAdd            267609      0.26%     54.95% # Class of committed instruction
system.cpu.op_class_0::SimdFloatAlu                 0      0.00%     54.95% # Class of committed instruction
system.cpu.op_class_0::SimdFloatCmp            259630      0.26%     55.20% # Class of committed instruction
system.cpu.op_class_0::SimdFloatCvt            161456      0.16%     55.36% # Class of committed instruction
system.cpu.op_class_0::SimdFloatDiv             54308      0.05%     55.42% # Class of committed instruction
system.cpu.op_class_0::SimdFloatMisc           483618      0.48%     55.90% # Class of committed instruction
system.cpu.op_class_0::SimdFloatMult            33524      0.03%     55.93% # Class of committed instruction
system.cpu.op_class_0::SimdFloatMultAcc         11115      0.01%     55.94% # Class of committed instruction
system.cpu.op_class_0::SimdFloatSqrt                0      0.00%     55.94% # Class of committed instruction
system.cpu.op_class_0::SimdReduceAdd                0      0.00%     55.94% # Class of committed instruction
system.cpu.op_class_0::SimdReduceAlu                0      0.00%     55.94% # Class of committed instruction
system.cpu.op_class_0::SimdReduceCmp                0      0.00%     55.94% # Class of committed instruction
system.cpu.op_class_0::SimdFloatReduceAdd            0      0.00%     55.94% # Class of committed instruction
system.cpu.op_class_0::SimdFloatReduceCmp            0      0.00%     55.94% # Class of committed instruction
system.cpu.op_class_0::SimdAes                      0      0.00%     55.94% # Class of committed instruction
system.cpu.op_class_0::SimdAesMix                   0      0.00%     55.94% # Class of committed instruction
system.cpu.op_class_0::SimdSha1Hash                 0      0.00%     55.94% # Class of committed instruction
system.cpu.op_class_0::SimdSha1Hash2                0      0.00%     55.94% # Class of committed instruction
system.cpu.op_class_0::SimdSha256Hash               0      0.00%     55.94% # Class of committed instruction
system.cpu.op_class_0::SimdSha256Hash2              0      0.00%     55.94% # Class of committed instruction
system.cpu.op_class_0::SimdShaSigma2                0      0.00%     55.94% # Class of committed instruction
system.cpu.op_class_0::SimdShaSigma3                0      0.00%     55.94% # Class of committed instruction
system.cpu.op_class_0::SimdPredAlu                  0      0.00%     55.94% # Class of committed instruction
system.cpu.op_class_0::MemRead               38167638     37.75%     93.69% # Class of committed instruction
system.cpu.op_class_0::MemWrite               6379046      6.31%    100.00% # Class of committed instruction
system.cpu.op_class_0::FloatMemRead                 0      0.00%    100.00% # Class of committed instruction
system.cpu.op_class_0::FloatMemWrite                0      0.00%    100.00% # Class of committed instruction
system.cpu.op_class_0::IprAccess                    0      0.00%    100.00% # Class of committed instruction
system.cpu.op_class_0::InstPrefetch                 0      0.00%    100.00% # Class of committed instruction
system.cpu.op_class_0::total                101102729                       # Class of committed instruction
system.cpu.tickCycles                       115968854                       # Number of cycles that the object actually ticked
system.cpu.workload.numSyscalls                    32                       # Number of system calls
system.membus.snoop_filter.hit_multi_requests            0                       # Number of requests hitting in the snoop filter with multiple (>1) holders of the requested data.
system.membus.snoop_filter.hit_multi_snoops            0                       # Number of snoops hitting in the snoop filter with multiple (>1) holders of the requested data.
system.membus.snoop_filter.hit_single_requests            0                       # Number of requests hitting in the snoop filter with a single holder of the requested data.
system.membus.snoop_filter.hit_single_snoops            0                       # Number of snoops hitting in the snoop filter with a single holder of the requested data.
system.membus.snoop_filter.tot_requests         10374                       # Total number of requests made to the snoop filter.
system.membus.snoop_filter.tot_snoops               0                       # Total number of snoops made to the snoop filter.
system.tol2bus.snoop_filter.hit_multi_requests          410                       # Number of requests hitting in the snoop filter with multiple (>1) holders of the requested data.
system.tol2bus.snoop_filter.hit_multi_snoops            0                       # Number of snoops hitting in the snoop filter with multiple (>1) holders of the requested data.
system.tol2bus.snoop_filter.hit_single_requests        88366                       # Number of requests hitting in the snoop filter with a single holder of the requested data.
system.tol2bus.snoop_filter.hit_single_snoops            0                       # Number of snoops hitting in the snoop filter with a single holder of the requested data.
system.tol2bus.snoop_filter.tot_requests       183009                       # Total number of requests made to the snoop filter.
system.tol2bus.snoop_filter.tot_snoops              0                       # Total number of snoops made to the snoop filter.
system.membus.pwrStateResidencyTicks::UNDEFINED  59901516000                       # Cumulative time (in ticks) in various power states
system.membus.trans_dist::ReadResp               3076                       # Transaction distribution
system.membus.trans_dist::ReadExReq              7298                       # Transaction distribution
system.membus.trans_dist::ReadExResp             7298                       # Transaction distribution
system.membus.trans_dist::ReadSharedReq          3076                       # Transaction distribution
system.membus.pkt_count_system.l2.mem_side::system.mem_ctrls.port        20748                       # Packet count per connected master and slave (bytes)
system.membus.pkt_count::total                  20748                       # Packet count per connected master and slave (bytes)
system.membus.pkt_size_system.l2.mem_side::system.mem_ctrls.port       331968                       # Cumulative packet size per connected master and slave (bytes)
system.membus.pkt_size::total                  331968                       # Cumulative packet size per connected master and slave (bytes)
system.membus.snoops                                0                       # Total snoops (count)
system.membus.snoopTraffic                          0                       # Total snoop traffic (bytes)
system.membus.snoop_fanout::samples             10374                       # Request fanout histogram
system.membus.snoop_fanout::mean                    0                       # Request fanout histogram
system.membus.snoop_fanout::stdev                   0                       # Request fanout histogram
system.membus.snoop_fanout::underflows              0      0.00%      0.00% # Request fanout histogram
system.membus.snoop_fanout::0                   10374    100.00%    100.00% # Request fanout histogram
system.membus.snoop_fanout::1                       0      0.00%    100.00% # Request fanout histogram
system.membus.snoop_fanout::overflows               0      0.00%    100.00% # Request fanout histogram
system.membus.snoop_fanout::min_value               0                       # Request fanout histogram
system.membus.snoop_fanout::max_value               0                       # Request fanout histogram
system.membus.snoop_fanout::total               10374                       # Request fanout histogram
system.membus.respLayer1.occupancy           34213500                       # Layer occupancy (ticks)
system.membus.respLayer1.utilization              0.1                       # Layer utilization (%)
system.membus.reqLayer0.occupancy            12467000                       # Layer occupancy (ticks)
system.membus.reqLayer0.utilization               0.0                       # Layer utilization (%)
system.tol2bus.pwrStateResidencyTicks::UNDEFINED  59901516000                       # Cumulative time (in ticks) in various power states
system.tol2bus.trans_dist::ReadResp             33702                       # Transaction distribution
system.tol2bus.trans_dist::WritebackDirty        86841                       # Transaction distribution
system.tol2bus.trans_dist::CleanEvict            1510                       # Transaction distribution
system.tol2bus.trans_dist::ReadExReq            60956                       # Transaction distribution
system.tol2bus.trans_dist::ReadExResp           60956                       # Transaction distribution
system.tol2bus.trans_dist::ReadCleanReq          2211                       # Transaction distribution
system.tol2bus.trans_dist::ReadSharedReq        31491                       # Transaction distribution
system.tol2bus.pkt_count_system.cpu.icache.mem_side::system.l2.cpu_side         4422                       # Packet count per connected master and slave (bytes)
system.tol2bus.pkt_count_system.cpu.dcache.mem_side::system.l2.cpu_side       273245                       # Packet count per connected master and slave (bytes)
system.tol2bus.pkt_count::total                277667                       # Packet count per connected master and slave (bytes)
system.tol2bus.pkt_size_system.cpu.icache.mem_side::system.l2.cpu_side        70752                       # Cumulative packet size per connected master and slave (bytes)
system.tol2bus.pkt_size_system.cpu.dcache.mem_side::system.l2.cpu_side      5737216                       # Cumulative packet size per connected master and slave (bytes)
system.tol2bus.pkt_size::total                5807968                       # Cumulative packet size per connected master and slave (bytes)
system.tol2bus.snoops                               0                       # Total snoops (count)
system.tol2bus.snoopTraffic                         0                       # Total snoop traffic (bytes)
system.tol2bus.snoop_fanout::samples            94658                       # Request fanout histogram
system.tol2bus.snoop_fanout::mean            0.004490                       # Request fanout histogram
system.tol2bus.snoop_fanout::stdev           0.066856                       # Request fanout histogram
system.tol2bus.snoop_fanout::underflows             0      0.00%      0.00% # Request fanout histogram
system.tol2bus.snoop_fanout::0                  94233     99.55%     99.55% # Request fanout histogram
system.tol2bus.snoop_fanout::1                    425      0.45%    100.00% # Request fanout histogram
system.tol2bus.snoop_fanout::2                      0      0.00%    100.00% # Request fanout histogram
system.tol2bus.snoop_fanout::overflows              0      0.00%    100.00% # Request fanout histogram
system.tol2bus.snoop_fanout::min_value              0                       # Request fanout histogram
system.tol2bus.snoop_fanout::max_value              1                       # Request fanout histogram
system.tol2bus.snoop_fanout::total              94658                       # Request fanout histogram
system.tol2bus.reqLayer0.occupancy          134925000                       # Layer occupancy (ticks)
system.tol2bus.reqLayer0.utilization              0.2                       # Layer utilization (%)
system.tol2bus.respLayer1.occupancy          92450493                       # Layer occupancy (ticks)
system.tol2bus.respLayer1.utilization             0.2                       # Layer utilization (%)
system.tol2bus.respLayer0.occupancy           2211000                       # Layer occupancy (ticks)
system.tol2bus.respLayer0.utilization             0.0                       # Layer utilization (%)
system.voltage_domain.voltage                       1                       # Voltage in Volts
system.clk_domain.clock                          1000                       # Clock period in ticks
system.l2.pwrStateResidencyTicks::UNDEFINED  59901516000                       # Cumulative time (in ticks) in various power states
system.l2.demand_hits::.cpu.inst                   63                       # number of demand (read+write) hits
system.l2.demand_hits::.cpu.data                84214                       # number of demand (read+write) hits
system.l2.demand_hits::total                    84277                       # number of demand (read+write) hits
system.l2.overall_hits::.cpu.inst                  63                       # number of overall hits
system.l2.overall_hits::.cpu.data               84214                       # number of overall hits
system.l2.overall_hits::total                   84277                       # number of overall hits
system.l2.demand_misses::.cpu.inst               2148                       # number of demand (read+write) misses
system.l2.demand_misses::.cpu.data               8233                       # number of demand (read+write) misses
system.l2.demand_misses::total                  10381                       # number of demand (read+write) misses
system.l2.overall_misses::.cpu.inst              2148                       # number of overall misses
system.l2.overall_misses::.cpu.data              8233                       # number of overall misses
system.l2.overall_misses::total                 10381                       # number of overall misses
system.l2.demand_miss_latency::.cpu.inst    162907500                       # number of demand (read+write) miss cycles
system.l2.demand_miss_latency::.cpu.data    628524000                       # number of demand (read+write) miss cycles
system.l2.demand_miss_latency::total        791431500                       # number of demand (read+write) miss cycles
system.l2.overall_miss_latency::.cpu.inst    162907500                       # number of overall miss cycles
system.l2.overall_miss_latency::.cpu.data    628524000                       # number of overall miss cycles
system.l2.overall_miss_latency::total       791431500                       # number of overall miss cycles
system.l2.demand_accesses::.cpu.inst             2211                       # number of demand (read+write) accesses
system.l2.demand_accesses::.cpu.data            92447                       # number of demand (read+write) accesses
system.l2.demand_accesses::total                94658                       # number of demand (read+write) accesses
system.l2.overall_accesses::.cpu.inst            2211                       # number of overall (read+write) accesses
system.l2.overall_accesses::.cpu.data           92447                       # number of overall (read+write) accesses
system.l2.overall_accesses::total               94658                       # number of overall (read+write) accesses
system.l2.demand_miss_rate::.cpu.inst        0.971506                       # miss rate for demand accesses
system.l2.demand_miss_rate::.cpu.data        0.089056                       # miss rate for demand accesses
system.l2.demand_miss_rate::total            0.109668                       # miss rate for demand accesses
system.l2.overall_miss_rate::.cpu.inst       0.971506                       # miss rate for overall accesses
system.l2.overall_miss_rate::.cpu.data       0.089056                       # miss rate for overall accesses
system.l2.overall_miss_rate::total           0.109668                       # miss rate for overall accesses
system.l2.demand_avg_miss_latency::.cpu.inst 75841.480447                       # average overall miss latency
system.l2.demand_avg_miss_latency::.cpu.data 76342.038139                       # average overall miss latency
system.l2.demand_avg_miss_latency::total 76238.464502                       # average overall miss latency
system.l2.overall_avg_miss_latency::.cpu.inst 75841.480447                       # average overall miss latency
system.l2.overall_avg_miss_latency::.cpu.data 76342.038139                       # average overall miss latency
system.l2.overall_avg_miss_latency::total 76238.464502                       # average overall miss latency
system.l2.blocked_cycles::no_mshrs                  0                       # number of cycles access was blocked
system.l2.blocked_cycles::no_targets                0                       # number of cycles access was blocked
system.l2.blocked::no_mshrs                         0                       # number of cycles access was blocked
system.l2.blocked::no_targets                       0                       # number of cycles access was blocked
system.l2.avg_blocked_cycles::no_mshrs            nan                       # average number of cycles each access was blocked
system.l2.avg_blocked_cycles::no_targets          nan                       # average number of cycles each access was blocked
system.l2.demand_mshr_hits::.cpu.data               7                       # number of demand (read+write) MSHR hits
system.l2.demand_mshr_hits::total                   7                       # number of demand (read+write) MSHR hits
system.l2.overall_mshr_hits::.cpu.data              7                       # number of overall MSHR hits
system.l2.overall_mshr_hits::total                  7                       # number of overall MSHR hits
system.l2.demand_mshr_misses::.cpu.inst          2148                       # number of demand (read+write) MSHR misses
system.l2.demand_mshr_misses::.cpu.data          8226                       # number of demand (read+write) MSHR misses
system.l2.demand_mshr_misses::total             10374                       # number of demand (read+write) MSHR misses
system.l2.overall_mshr_misses::.cpu.inst         2148                       # number of overall MSHR misses
system.l2.overall_mshr_misses::.cpu.data         8226                       # number of overall MSHR misses
system.l2.overall_mshr_misses::total            10374                       # number of overall MSHR misses
system.l2.demand_mshr_miss_latency::.cpu.inst    141427500                       # number of demand (read+write) MSHR miss cycles
system.l2.demand_mshr_miss_latency::.cpu.data    545824500                       # number of demand (read+write) MSHR miss cycles
system.l2.demand_mshr_miss_latency::total    687252000                       # number of demand (read+write) MSHR miss cycles
system.l2.overall_mshr_miss_latency::.cpu.inst    141427500                       # number of overall MSHR miss cycles
system.l2.overall_mshr_miss_latency::.cpu.data    545824500                       # number of overall MSHR miss cycles
system.l2.overall_mshr_miss_latency::total    687252000                       # number of overall MSHR miss cycles
system.l2.demand_mshr_miss_rate::.cpu.inst     0.971506                       # mshr miss rate for demand accesses
system.l2.demand_mshr_miss_rate::.cpu.data     0.088981                       # mshr miss rate for demand accesses
system.l2.demand_mshr_miss_rate::total       0.109595                       # mshr miss rate for demand accesses
system.l2.overall_mshr_miss_rate::.cpu.inst     0.971506                       # mshr miss rate for overall accesses
system.l2.overall_mshr_miss_rate::.cpu.data     0.088981                       # mshr miss rate for overall accesses
system.l2.overall_mshr_miss_rate::total      0.109595                       # mshr miss rate for overall accesses
system.l2.demand_avg_mshr_miss_latency::.cpu.inst 65841.480447                       # average overall mshr miss latency
system.l2.demand_avg_mshr_miss_latency::.cpu.data 66353.574034                       # average overall mshr miss latency
system.l2.demand_avg_mshr_miss_latency::total 66247.541932                       # average overall mshr miss latency
system.l2.overall_avg_mshr_miss_latency::.cpu.inst 65841.480447                       # average overall mshr miss latency
system.l2.overall_avg_mshr_miss_latency::.cpu.data 66353.574034                       # average overall mshr miss latency
system.l2.overall_avg_mshr_miss_latency::total 66247.541932                       # average overall mshr miss latency
system.l2.replacements                              0                       # number of replacements
system.l2.WritebackDirty_hits::.writebacks        86841                       # number of WritebackDirty hits
system.l2.WritebackDirty_hits::total            86841                       # number of WritebackDirty hits
system.l2.WritebackDirty_accesses::.writebacks        86841                       # number of WritebackDirty accesses(hits+misses)
system.l2.WritebackDirty_accesses::total        86841                       # number of WritebackDirty accesses(hits+misses)
system.l2.ReadExReq_hits::.cpu.data             53658                       # number of ReadExReq hits
system.l2.ReadExReq_hits::total                 53658                       # number of ReadExReq hits
system.l2.ReadExReq_misses::.cpu.data            7298                       # number of ReadExReq misses
system.l2.ReadExReq_misses::total                7298                       # number of ReadExReq misses
system.l2.ReadExReq_miss_latency::.cpu.data    554605000                       # number of ReadExReq miss cycles
system.l2.ReadExReq_miss_latency::total     554605000                       # number of ReadExReq miss cycles
system.l2.ReadExReq_accesses::.cpu.data         60956                       # number of ReadExReq accesses(hits+misses)
system.l2.ReadExReq_accesses::total             60956                       # number of ReadExReq accesses(hits+misses)
system.l2.ReadExReq_miss_rate::.cpu.data     0.119726                       # miss rate for ReadExReq accesses
system.l2.ReadExReq_miss_rate::total         0.119726                       # miss rate for ReadExReq accesses
system.l2.ReadExReq_avg_miss_latency::.cpu.data 75994.107975                       # average ReadExReq miss latency
system.l2.ReadExReq_avg_miss_latency::total 75994.107975                       # average ReadExReq miss latency
system.l2.ReadExReq_mshr_misses::.cpu.data         7298                       # number of ReadExReq MSHR misses
system.l2.ReadExReq_mshr_misses::total           7298                       # number of ReadExReq MSHR misses
system.l2.ReadExReq_mshr_miss_latency::.cpu.data    481625000                       # number of ReadExReq MSHR miss cycles
system.l2.ReadExReq_mshr_miss_latency::total    481625000                       # number of ReadExReq MSHR miss cycles
system.l2.ReadExReq_mshr_miss_rate::.cpu.data     0.119726                       # mshr miss rate for ReadExReq accesses
system.l2.ReadExReq_mshr_miss_rate::total     0.119726                       # mshr miss rate for ReadExReq accesses
system.l2.ReadExReq_avg_mshr_miss_latency::.cpu.data 65994.107975                       # average ReadExReq mshr miss latency
system.l2.ReadExReq_avg_mshr_miss_latency::total 65994.107975                       # average ReadExReq mshr miss latency
system.l2.ReadCleanReq_hits::.cpu.inst             63                       # number of ReadCleanReq hits
system.l2.ReadCleanReq_hits::total                 63                       # number of ReadCleanReq hits
system.l2.ReadCleanReq_misses::.cpu.inst         2148                       # number of ReadCleanReq misses
system.l2.ReadCleanReq_misses::total             2148                       # number of ReadCleanReq misses
system.l2.ReadCleanReq_miss_latency::.cpu.inst    162907500                       # number of ReadCleanReq miss cycles
system.l2.ReadCleanReq_miss_latency::total    162907500                       # number of ReadCleanReq miss cycles
system.l2.ReadCleanReq_accesses::.cpu.inst         2211                       # number of ReadCleanReq accesses(hits+misses)
system.l2.ReadCleanReq_accesses::total           2211                       # number of ReadCleanReq accesses(hits+misses)
system.l2.ReadCleanReq_miss_rate::.cpu.inst     0.971506                       # miss rate for ReadCleanReq accesses
system.l2.ReadCleanReq_miss_rate::total      0.971506                       # miss rate for ReadCleanReq accesses
system.l2.ReadCleanReq_avg_miss_latency::.cpu.inst 75841.480447                       # average ReadCleanReq miss latency
system.l2.ReadCleanReq_avg_miss_latency::total 75841.480447                       # average ReadCleanReq miss latency
system.l2.ReadCleanReq_mshr_misses::.cpu.inst         2148                       # number of ReadCleanReq MSHR misses
system.l2.ReadCleanReq_mshr_misses::total         2148                       # number of ReadCleanReq MSHR misses
system.l2.ReadCleanReq_mshr_miss_latency::.cpu.inst    141427500                       # number of ReadCleanReq MSHR miss cycles
system.l2.ReadCleanReq_mshr_miss_latency::total    141427500                       # number of ReadCleanReq MSHR miss cycles
system.l2.ReadCleanReq_mshr_miss_rate::.cpu.inst     0.971506                       # mshr miss rate for ReadCleanReq accesses
system.l2.ReadCleanReq_mshr_miss_rate::total     0.971506                       # mshr miss rate for ReadCleanReq accesses
system.l2.ReadCleanReq_avg_mshr_miss_latency::.cpu.inst 65841.480447                       # average ReadCleanReq mshr miss latency
system.l2.ReadCleanReq_avg_mshr_miss_latency::total 65841.480447                       # average ReadCleanReq mshr miss latency
system.l2.ReadSharedReq_hits::.cpu.data         30556                       # number of ReadSharedReq hits
system.l2.ReadSharedReq_hits::total             30556                       # number of ReadSharedReq hits
system.l2.ReadSharedReq_misses::.cpu.data          935                       # number of ReadSharedReq misses
system.l2.ReadSharedReq_misses::total             935                       # number of ReadSharedReq misses
system.l2.ReadSharedReq_miss_latency::.cpu.data     73919000                       # number of ReadSharedReq miss cycles
system.l2.ReadSharedReq_miss_latency::total     73919000                       # number of ReadSharedReq miss cycles
system.l2.ReadSharedReq_accesses::.cpu.data        31491                       # number of ReadSharedReq accesses(hits+misses)
system.l2.ReadSharedReq_accesses::total         31491                       # number of ReadSharedReq accesses(hits+misses)
system.l2.ReadSharedReq_miss_rate::.cpu.data     0.029691                       # miss rate for ReadSharedReq accesses
system.l2.ReadSharedReq_miss_rate::total     0.029691                       # miss rate for ReadSharedReq accesses
system.l2.ReadSharedReq_avg_miss_latency::.cpu.data 79057.754011                       # average ReadSharedReq miss latency
system.l2.ReadSharedReq_avg_miss_latency::total 79057.754011                       # average ReadSharedReq miss latency
system.l2.ReadSharedReq_mshr_hits::.cpu.data            7                       # number of ReadSharedReq MSHR hits
system.l2.ReadSharedReq_mshr_hits::total            7                       # number of ReadSharedReq MSHR hits
system.l2.ReadSharedReq_mshr_misses::.cpu.data          928                       # number of ReadSharedReq MSHR misses
system.l2.ReadSharedReq_mshr_misses::total          928                       # number of ReadSharedReq MSHR misses
system.l2.ReadSharedReq_mshr_miss_latency::.cpu.data     64199500                       # number of ReadSharedReq MSHR miss cycles
system.l2.ReadSharedReq_mshr_miss_latency::total     64199500                       # number of ReadSharedReq MSHR miss cycles
system.l2.ReadSharedReq_mshr_miss_rate::.cpu.data     0.029469                       # mshr miss rate for ReadSharedReq accesses
system.l2.ReadSharedReq_mshr_miss_rate::total     0.029469                       # mshr miss rate for ReadSharedReq accesses
system.l2.ReadSharedReq_avg_mshr_miss_latency::.cpu.data 69180.495690                       # average ReadSharedReq mshr miss latency
system.l2.ReadSharedReq_avg_mshr_miss_latency::total 69180.495690                       # average ReadSharedReq mshr miss latency
system.l2.tags.pwrStateResidencyTicks::UNDEFINED  59901516000                       # Cumulative time (in ticks) in various power states
system.l2.tags.tagsinuse                  9940.813228                       # Cycle average of tags in use
system.l2.tags.total_refs                      182592                       # Total number of references to valid blocks.
system.l2.tags.sampled_refs                     10374                       # Sample count of references to valid blocks.
system.l2.tags.avg_refs                     17.600925                       # Average number of references to valid blocks.
system.l2.tags.warmup_cycle                     77000                       # Cycle when the warmup percentage was hit.
system.l2.tags.occ_blocks::.cpu.inst      2131.207081                       # Average occupied blocks per requestor
system.l2.tags.occ_blocks::.cpu.data      7809.606148                       # Average occupied blocks per requestor
system.l2.tags.occ_percent::.cpu.inst        0.065039                       # Average percentage of cache occupancy
system.l2.tags.occ_percent::.cpu.data        0.238330                       # Average percentage of cache occupancy
system.l2.tags.occ_percent::total            0.303370                       # Average percentage of cache occupancy
system.l2.tags.occ_task_id_blocks::1024         10374                       # Occupied blocks per task id
system.l2.tags.age_task_id_blocks_1024::3            2                       # Occupied blocks per task id
system.l2.tags.age_task_id_blocks_1024::4        10372                       # Occupied blocks per task id
system.l2.tags.occ_task_id_percent::1024     0.316589                       # Percentage of cache occupancy per task id
system.l2.tags.tag_accesses                    375572                       # Number of tag accesses
system.l2.tags.data_accesses                   375572                       # Number of data accesses
system.cpu_voltage_domain.voltage                   1                       # Voltage in Volts
system.mem_ctrls.pwrStateResidencyTicks::UNDEFINED  59901516000                       # Cumulative time (in ticks) in various power states
system.mem_ctrls.bytes_read::.cpu.inst          68736                       # Number of bytes read from this memory
system.mem_ctrls.bytes_read::.cpu.data         263232                       # Number of bytes read from this memory
system.mem_ctrls.bytes_read::total             331968                       # Number of bytes read from this memory
system.mem_ctrls.bytes_inst_read::.cpu.inst        68736                       # Number of instructions bytes read from this memory
system.mem_ctrls.bytes_inst_read::total         68736                       # Number of instructions bytes read from this memory
system.mem_ctrls.num_reads::.cpu.inst            2148                       # Number of read requests responded to by this memory
system.mem_ctrls.num_reads::.cpu.data            8226                       # Number of read requests responded to by this memory
system.mem_ctrls.num_reads::total               10374                       # Number of read requests responded to by this memory
system.mem_ctrls.bw_read::.cpu.inst           1147483                       # Total read bandwidth from this memory (bytes/s)
system.mem_ctrls.bw_read::.cpu.data           4394413                       # Total read bandwidth from this memory (bytes/s)
system.mem_ctrls.bw_read::total               5541896                       # Total read bandwidth from this memory (bytes/s)
system.mem_ctrls.bw_inst_read::.cpu.inst      1147483                       # Instruction read bandwidth from this memory (bytes/s)
system.mem_ctrls.bw_inst_read::total          1147483                       # Instruction read bandwidth from this memory (bytes/s)
system.mem_ctrls.bw_total::.cpu.inst          1147483                       # Total bandwidth to/from this memory (bytes/s)
system.mem_ctrls.bw_total::.cpu.data          4394413                       # Total bandwidth to/from this memory (bytes/s)
system.mem_ctrls.bw_total::total              5541896                       # Total bandwidth to/from this memory (bytes/s)
system.mem_ctrls.avgPriority_.cpu.inst::samples      2148.00                       # Average QoS priority value for accepted requests
system.mem_ctrls.avgPriority_.cpu.data::samples      8226.00                       # Average QoS priority value for accepted requests
system.mem_ctrls.priorityMinLatency      0.000000018750                       # per QoS priority minimum request to response latency (s)
system.mem_ctrls.priorityMaxLatency      0.000000594000                       # per QoS priority maximum request to response latency (s)
system.mem_ctrls.numReadWriteTurnArounds            0                       # Number of turnarounds from READ to WRITE
system.mem_ctrls.numWriteReadTurnArounds            0                       # Number of turnarounds from WRITE to READ
system.mem_ctrls.numStayReadState               36123                       # Number of times bus staying in READ state
system.mem_ctrls.numStayWriteState                  0                       # Number of times bus staying in WRITE state
system.mem_ctrls.readReqs                       10374                       # Number of read requests accepted
system.mem_ctrls.writeReqs                          0                       # Number of write requests accepted
system.mem_ctrls.readBursts                     10374                       # Number of DRAM read bursts, including those serviced by the write queue
system.mem_ctrls.writeBursts                        0                       # Number of DRAM write bursts, including those merged in the write queue
system.mem_ctrls.servicedByWrQ                      0                       # Number of DRAM read bursts serviced by the write queue
system.mem_ctrls.mergedWrBursts                     0                       # Number of DRAM write bursts merged with an existing one
system.mem_ctrls.neitherReadNorWriteReqs            0                       # Number of requests that are neither read nor write
system.mem_ctrls.perBankRdBursts::0               460                       # Per bank write bursts
system.mem_ctrls.perBankRdBursts::1               554                       # Per bank write bursts
system.mem_ctrls.perBankRdBursts::2               340                       # Per bank write bursts
system.mem_ctrls.perBankRdBursts::3               678                       # Per bank write bursts
system.mem_ctrls.perBankRdBursts::4               767                       # Per bank write bursts
system.mem_ctrls.perBankRdBursts::5               732                       # Per bank write bursts
system.mem_ctrls.perBankRdBursts::6               715                       # Per bank write bursts
system.mem_ctrls.perBankRdBursts::7               764                       # Per bank write bursts
system.mem_ctrls.perBankRdBursts::8               681                       # Per bank write bursts
system.mem_ctrls.perBankRdBursts::9               699                       # Per bank write bursts
system.mem_ctrls.perBankRdBursts::10              766                       # Per bank write bursts
system.mem_ctrls.perBankRdBursts::11              557                       # Per bank write bursts
system.mem_ctrls.perBankRdBursts::12              617                       # Per bank write bursts
system.mem_ctrls.perBankRdBursts::13              655                       # Per bank write bursts
system.mem_ctrls.perBankRdBursts::14              747                       # Per bank write bursts
system.mem_ctrls.perBankRdBursts::15              642                       # Per bank write bursts
system.mem_ctrls.perBankWrBursts::0                 0                       # Per bank write bursts
system.mem_ctrls.perBankWrBursts::1                 0                       # Per bank write bursts
system.mem_ctrls.perBankWrBursts::2                 0                       # Per bank write bursts
system.mem_ctrls.perBankWrBursts::3                 0                       # Per bank write bursts
system.mem_ctrls.perBankWrBursts::4                 0                       # Per bank write bursts
system.mem_ctrls.perBankWrBursts::5                 0                       # Per bank write bursts
system.mem_ctrls.perBankWrBursts::6                 0                       # Per bank write bursts
system.mem_ctrls.perBankWrBursts::7                 0                       # Per bank write bursts
system.mem_ctrls.perBankWrBursts::8                 0                       # Per bank write bursts
system.mem_ctrls.perBankWrBursts::9                 0                       # Per bank write bursts
system.mem_ctrls.perBankWrBursts::10                0                       # Per bank write bursts
system.mem_ctrls.perBankWrBursts::11                0                       # Per bank write bursts
system.mem_ctrls.perBankWrBursts::12                0                       # Per bank write bursts
system.mem_ctrls.perBankWrBursts::13                0                       # Per bank write bursts
system.mem_ctrls.perBankWrBursts::14                0                       # Per bank write bursts
system.mem_ctrls.perBankWrBursts::15                0                       # Per bank write bursts
system.mem_ctrls.avgRdQLen                       1.00                       # Average read queue length when enqueuing
system.mem_ctrls.avgWrQLen                       0.00                       # Average write queue length when enqueuing
system.mem_ctrls.totQLat                     67327000                       # Total ticks spent queuing
system.mem_ctrls.totBusLat                   51870000                       # Total ticks spent in databus transfers
system.mem_ctrls.totMemAccLat               261839500                       # Total ticks spent from burst creation until serviced by the DRAM
system.mem_ctrls.avgQLat                      6489.97                       # Average queueing delay per DRAM burst
system.mem_ctrls.avgBusLat                    5000.00                       # Average bus latency per DRAM burst
system.mem_ctrls.avgMemAccLat                25239.97                       # Average memory access latency per DRAM burst
system.mem_ctrls.numRdRetry                         0                       # Number of times read queue was full causing retry
system.mem_ctrls.numWrRetry                         0                       # Number of times write queue was full causing retry
system.mem_ctrls.readRowHits                     8715                       # Number of row buffer hits during reads
system.mem_ctrls.writeRowHits                       0                       # Number of row buffer hits during writes
system.mem_ctrls.readRowHitRate                 84.01                       # Row buffer hit rate for reads
system.mem_ctrls.writeRowHitRate                  nan                       # Row buffer hit rate for writes
system.mem_ctrls.readPktSize::0                     0                       # Read request sizes (log2)
system.mem_ctrls.readPktSize::1                     0                       # Read request sizes (log2)
system.mem_ctrls.readPktSize::2                     0                       # Read request sizes (log2)
system.mem_ctrls.readPktSize::3                     0                       # Read request sizes (log2)
system.mem_ctrls.readPktSize::4                     0                       # Read request sizes (log2)
system.mem_ctrls.readPktSize::5                 10374                       # Read request sizes (log2)
system.mem_ctrls.readPktSize::6                     0                       # Read request sizes (log2)
system.mem_ctrls.writePktSize::0                    0                       # Write request sizes (log2)
system.mem_ctrls.writePktSize::1                    0                       # Write request sizes (log2)
system.mem_ctrls.writePktSize::2                    0                       # Write request sizes (log2)
system.mem_ctrls.writePktSize::3                    0                       # Write request sizes (log2)
system.mem_ctrls.writePktSize::4                    0                       # Write request sizes (log2)
system.mem_ctrls.writePktSize::5                    0                       # Write request sizes (log2)
system.mem_ctrls.writePktSize::6                    0                       # Write request sizes (log2)
system.mem_ctrls.rdQLenPdf::0                    9796                       # What read queue length does an incoming req see
system.mem_ctrls.rdQLenPdf::1                     527                       # What read queue length does an incoming req see
system.mem_ctrls.rdQLenPdf::2                      44                       # What read queue length does an incoming req see
system.mem_ctrls.rdQLenPdf::3                       7                       # What read queue length does an incoming req see
system.mem_ctrls.rdQLenPdf::4                       0                       # What read queue length does an incoming req see
system.mem_ctrls.rdQLenPdf::5                       0                       # What read queue length does an incoming req see
system.mem_ctrls.rdQLenPdf::6                       0                       # What read queue length does an incoming req see
system.mem_ctrls.rdQLenPdf::7                       0                       # What read queue length does an incoming req see
system.mem_ctrls.rdQLenPdf::8                       0                       # What read queue length does an incoming req see
system.mem_ctrls.rdQLenPdf::9                       0                       # What read queue length does an incoming req see
system.mem_ctrls.rdQLenPdf::10                      0                       # What read queue length does an incoming req see
system.mem_ctrls.rdQLenPdf::11                      0                       # What read queue length does an incoming req see
system.mem_ctrls.rdQLenPdf::12                      0                       # What read queue length does an incoming req see
system.mem_ctrls.rdQLenPdf::13                      0                       # What read queue length does an incoming req see
system.mem_ctrls.rdQLenPdf::14                      0                       # What read queue length does an incoming req see
system.mem_ctrls.rdQLenPdf::15                      0                       # What read queue length does an incoming req see
system.mem_ctrls.rdQLenPdf::16                      0                       # What read queue length does an incoming req see
system.mem_ctrls.rdQLenPdf::17                      0                       # What read queue length does an incoming req see
system.mem_ctrls.rdQLenPdf::18                      0                       # What read queue length does an incoming req see
system.mem_ctrls.rdQLenPdf::19                      0                       # What read queue length does an incoming req see
system.mem_ctrls.rdQLenPdf::20                      0                       # What read queue length does an incoming req see
system.mem_ctrls.rdQLenPdf::21                      0                       # What read queue length does an incoming req see
system.mem_ctrls.rdQLenPdf::22                      0                       # What read queue length does an incoming req see
system.mem_ctrls.rdQLenPdf::23                      0                       # What read queue length does an incoming req see
system.mem_ctrls.rdQLenPdf::24                      0                       # What read queue length does an incoming req see
system.mem_ctrls.rdQLenPdf::25                      0                       # What read queue length does an incoming req see
system.mem_ctrls.rdQLenPdf::26                      0                       # What read queue length does an incoming req see
system.mem_ctrls.rdQLenPdf::27                      0                       # What read queue length does an incoming req see
system.mem_ctrls.rdQLenPdf::28                      0                       # What read queue length does an incoming req see
system.mem_ctrls.rdQLenPdf::29                      0                       # What read queue length does an incoming req see
system.mem_ctrls.rdQLenPdf::30                      0                       # What read queue length does an incoming req see
system.mem_ctrls.rdQLenPdf::31                      0                       # What read queue length does an incoming req see
system.mem_ctrls.wrQLenPdf::0                       0                       # What write queue length does an incoming req see
system.mem_ctrls.wrQLenPdf::1                       0                       # What write queue length does an incoming req see
system.mem_ctrls.wrQLenPdf::2                       0                       # What write queue length does an incoming req see
system.mem_ctrls.wrQLenPdf::3                       0                       # What write queue length does an incoming req see
system.mem_ctrls.wrQLenPdf::4                       0                       # What write queue length does an incoming req see
system.mem_ctrls.wrQLenPdf::5                       0                       # What write queue length does an incoming req see
system.mem_ctrls.wrQLenPdf::6                       0                       # What write queue length does an incoming req see
system.mem_ctrls.wrQLenPdf::7                       0                       # What write queue length does an incoming req see
system.mem_ctrls.wrQLenPdf::8                       0                       # What write queue length does an incoming req see
system.mem_ctrls.wrQLenPdf::9                       0                       # What write queue length does an incoming req see
system.mem_ctrls.wrQLenPdf::10                      0                       # What write queue length does an incoming req see
system.mem_ctrls.wrQLenPdf::11                      0                       # What write queue length does an incoming req see
system.mem_ctrls.wrQLenPdf::12                      0                       # What write queue length does an incoming req see
system.mem_ctrls.wrQLenPdf::13                      0                       # What write queue length does an incoming req see
system.mem_ctrls.wrQLenPdf::14                      0                       # What write queue length does an incoming req see
system.mem_ctrls.wrQLenPdf::15                      0                       # What write queue length does an incoming req see
system.mem_ctrls.wrQLenPdf::16                      0                       # What write queue length does an incoming req see
system.mem_ctrls.wrQLenPdf::17                      0                       # What write queue length does an incoming req see
system.mem_ctrls.wrQLenPdf::18                      0                       # What write queue length does an incoming req see
system.mem_ctrls.wrQLenPdf::19                      0                       # What write queue length does an incoming req see
system.mem_ctrls.wrQLenPdf::20                      0                       # What write queue length does an incoming req see
system.mem_ctrls.wrQLenPdf::21                      0                       # What write queue length does an incoming req see
system.mem_ctrls.wrQLenPdf::22                      0                       # What write queue length does an incoming req see
system.mem_ctrls.wrQLenPdf::23                      0                       # What write queue length does an incoming req see
system.mem_ctrls.wrQLenPdf::24                      0                       # What write queue length does an incoming req see
system.mem_ctrls.wrQLenPdf::25                      0                       # What write queue length does an incoming req see
system.mem_ctrls.wrQLenPdf::26                      0                       # What write queue length does an incoming req see
system.mem_ctrls.wrQLenPdf::27                      0                       # What write queue length does an incoming req see
system.mem_ctrls.wrQLenPdf::28                      0                       # What write queue length does an incoming req see
system.mem_ctrls.wrQLenPdf::29                      0                       # What write queue length does an incoming req see
system.mem_ctrls.wrQLenPdf::30                      0                       # What write queue length does an incoming req see
system.mem_ctrls.wrQLenPdf::31                      0                       # What write queue length does an incoming req see
system.mem_ctrls.wrQLenPdf::32                      0                       # What write queue length does an incoming req see
system.mem_ctrls.wrQLenPdf::33                      0                       # What write queue length does an incoming req see
system.mem_ctrls.wrQLenPdf::34                      0                       # What write queue length does an incoming req see
system.mem_ctrls.wrQLenPdf::35                      0                       # What write queue length does an incoming req see
system.mem_ctrls.wrQLenPdf::36                      0                       # What write queue length does an incoming req see
system.mem_ctrls.wrQLenPdf::37                      0                       # What write queue length does an incoming req see
system.mem_ctrls.wrQLenPdf::38                      0                       # What write queue length does an incoming req see
system.mem_ctrls.wrQLenPdf::39                      0                       # What write queue length does an incoming req see
system.mem_ctrls.wrQLenPdf::40                      0                       # What write queue length does an incoming req see
system.mem_ctrls.wrQLenPdf::41                      0                       # What write queue length does an incoming req see
system.mem_ctrls.wrQLenPdf::42                      0                       # What write queue length does an incoming req see
system.mem_ctrls.wrQLenPdf::43                      0                       # What write queue length does an incoming req see
system.mem_ctrls.wrQLenPdf::44                      0                       # What write queue length does an incoming req see
system.mem_ctrls.wrQLenPdf::45                      0                       # What write queue length does an incoming req see
system.mem_ctrls.wrQLenPdf::46                      0                       # What write queue length does an incoming req see
system.mem_ctrls.wrQLenPdf::47                      0                       # What write queue length does an incoming req see
system.mem_ctrls.wrQLenPdf::48                      0                       # What write queue length does an incoming req see
system.mem_ctrls.wrQLenPdf::49                      0                       # What write queue length does an incoming req see
system.mem_ctrls.wrQLenPdf::50                      0                       # What write queue length does an incoming req see
system.mem_ctrls.wrQLenPdf::51                      0                       # What write queue length does an incoming req see
system.mem_ctrls.wrQLenPdf::52                      0                       # What write queue length does an incoming req see
system.mem_ctrls.wrQLenPdf::53                      0                       # What write queue length does an incoming req see
system.mem_ctrls.wrQLenPdf::54                      0                       # What write queue length does an incoming req see
system.mem_ctrls.wrQLenPdf::55                      0                       # What write queue length does an incoming req see
system.mem_ctrls.wrQLenPdf::56                      0                       # What write queue length does an incoming req see
system.mem_ctrls.wrQLenPdf::57                      0                       # What write queue length does an incoming req see
system.mem_ctrls.wrQLenPdf::58                      0                       # What write queue length does an incoming req see
system.mem_ctrls.wrQLenPdf::59                      0                       # What write queue length does an incoming req see
system.mem_ctrls.wrQLenPdf::60                      0                       # What write queue length does an incoming req see
system.mem_ctrls.wrQLenPdf::61                      0                       # What write queue length does an incoming req see
system.mem_ctrls.wrQLenPdf::62                      0                       # What write queue length does an incoming req see
system.mem_ctrls.wrQLenPdf::63                      0                       # What write queue length does an incoming req see
system.mem_ctrls.bytesPerActivate::samples         1659                       # Bytes accessed per row activation
system.mem_ctrls.bytesPerActivate::mean    400.202532                       # Bytes accessed per row activation
system.mem_ctrls.bytesPerActivate::gmean   277.536195                       # Bytes accessed per row activation
system.mem_ctrls.bytesPerActivate::stdev   323.942596                       # Bytes accessed per row activation
system.mem_ctrls.bytesPerActivate::0-127          280     16.88%     16.88% # Bytes accessed per row activation
system.mem_ctrls.bytesPerActivate::128-255          362     21.82%     38.70% # Bytes accessed per row activation
system.mem_ctrls.bytesPerActivate::256-383          132      7.96%     46.65% # Bytes accessed per row activation
system.mem_ctrls.bytesPerActivate::384-511          501     30.20%     76.85% # Bytes accessed per row activation
system.mem_ctrls.bytesPerActivate::512-639           43      2.59%     79.45% # Bytes accessed per row activation
system.mem_ctrls.bytesPerActivate::640-767           23      1.39%     80.83% # Bytes accessed per row activation
system.mem_ctrls.bytesPerActivate::768-895           26      1.57%     82.40% # Bytes accessed per row activation
system.mem_ctrls.bytesPerActivate::896-1023           23      1.39%     83.79% # Bytes accessed per row activation
system.mem_ctrls.bytesPerActivate::1024-1151          269     16.21%    100.00% # Bytes accessed per row activation
system.mem_ctrls.bytesPerActivate::total         1659                       # Bytes accessed per row activation
system.mem_ctrls.bytesReadDRAM                 663936                       # Total number of bytes read from DRAM
system.mem_ctrls.bytesReadWrQ                       0                       # Total number of bytes read from write queue
system.mem_ctrls.bytesWritten                       0                       # Total number of bytes written to DRAM
system.mem_ctrls.bytesReadSys                  331968                       # Total read bytes from the system interface side
system.mem_ctrls.bytesWrittenSys                    0                       # Total written bytes from the system interface side
system.mem_ctrls.avgRdBW                        11.08                       # Average DRAM read bandwidth in MiByte/s
system.mem_ctrls.avgWrBW                         0.00                       # Average achieved write bandwidth in MiByte/s
system.mem_ctrls.avgRdBWSys                      5.54                       # Average system read bandwidth in MiByte/s
system.mem_ctrls.avgWrBWSys                      0.00                       # Average system write bandwidth in MiByte/s
system.mem_ctrls.peakBW                      12800.00                       # Theoretical peak bandwidth in MiByte/s
system.mem_ctrls.busUtil                         0.09                       # Data bus utilization in percentage
system.mem_ctrls.busUtilRead                     0.09                       # Data bus utilization in percentage for reads
system.mem_ctrls.busUtilWrite                    0.00                       # Data bus utilization in percentage for writes
system.mem_ctrls.totGap                   56571287000                       # Total gap between requests
system.mem_ctrls.avgGap                    5453179.78                       # Average gap between requests
system.mem_ctrls.masterReadBytes::.cpu.inst        68736                       # Per-master bytes read from memory
system.mem_ctrls.masterReadBytes::.cpu.data       263232                       # Per-master bytes read from memory
system.mem_ctrls.masterReadRate::.cpu.inst 1147483.479383059312                       # Per-master bytes read from memory rate (Bytes/sec)
system.mem_ctrls.masterReadRate::.cpu.data 4394412.989480934106                       # Per-master bytes read from memory rate (Bytes/sec)
system.mem_ctrls.masterReadAccesses::.cpu.inst         2148                       # Per-master read serviced memory accesses
system.mem_ctrls.masterReadAccesses::.cpu.data         8226                       # Per-master read serviced memory accesses
system.mem_ctrls.masterReadTotalLat::.cpu.inst     53541750                       # Per-master read total memory access latency
system.mem_ctrls.masterReadTotalLat::.cpu.data    208297750                       # Per-master read total memory access latency
system.mem_ctrls.masterReadAvgLat::.cpu.inst     24926.33                       # Per-master read average memory access latency
system.mem_ctrls.masterReadAvgLat::.cpu.data     25321.88                       # Per-master read average memory access latency
system.mem_ctrls.pageHitRate                    84.01                       # Row buffer hit rate, read and write combined
system.mem_ctrls.rank1.actEnergy              5804820                       # Energy for activate commands per rank (pJ)
system.mem_ctrls.rank1.preEnergy              3085335                       # Energy for precharge commands per rank (pJ)
system.mem_ctrls.rank1.readEnergy            38298960                       # Energy for read commands per rank (pJ)
system.mem_ctrls.rank1.writeEnergy                  0                       # Energy for write commands per rank (pJ)
system.mem_ctrls.rank1.refreshEnergy     4728425520.000001                       # Energy for refresh commands per rank (pJ)
system.mem_ctrls.rank1.actBackEnergy       1811934810                       # Energy for active background per rank (pJ)
system.mem_ctrls.rank1.preBackEnergy      21476342400                       # Energy for precharge background per rank (pJ)
system.mem_ctrls.rank1.actPowerDownEnergy            0                       # Energy for active power-down per rank (pJ)
[...]
system.cpu.icache.tags.occ_task_id_blocks::1024         2211                       # Occupied blocks per task id
system.cpu.icache.tags.age_task_id_blocks_1024::3            1                       # Occupied blocks per task id
system.cpu.icache.tags.age_task_id_blocks_1024::4         2210                       # Occupied blocks per task id
system.cpu.icache.tags.occ_task_id_percent::1024     0.134949                       # Percentage of cache occupancy per task id
system.cpu.icache.tags.tag_accesses          40588069                       # Number of tag accesses
system.cpu.icache.tags.data_accesses         40588069                       # Number of data accesses
system.cpu.dtb.walker.pwrStateResidencyTicks::UNDEFINED  59901516000                       # Cumulative time (in ticks) in various power states
system.cpu.dtb.stage2_mmu.stage2_tlb.walker.pwrStateResidencyTicks::UNDEFINED  59901516000                       # Cumulative time (in ticks) in various power states
system.cpu.dcache.pwrStateResidencyTicks::UNDEFINED  59901516000                       # Cumulative time (in ticks) in various power states
system.cpu.dcache.demand_hits::.cpu.data     43817568                       # number of demand (read+write) hits
system.cpu.dcache.demand_hits::total         43817568                       # number of demand (read+write) hits
system.cpu.dcache.overall_hits::.cpu.data     43826147                       # number of overall hits
system.cpu.dcache.overall_hits::total        43826147                       # number of overall hits
system.cpu.dcache.demand_misses::.cpu.data        99962                       # number of demand (read+write) misses
system.cpu.dcache.demand_misses::total          99962                       # number of demand (read+write) misses
system.cpu.dcache.overall_misses::.cpu.data       100095                       # number of overall misses
system.cpu.dcache.overall_misses::total        100095                       # number of overall misses
system.cpu.dcache.demand_miss_latency::.cpu.data   2150903500                       # number of demand (read+write) miss cycles
system.cpu.dcache.demand_miss_latency::total   2150903500                       # number of demand (read+write) miss cycles
system.cpu.dcache.overall_miss_latency::.cpu.data   2150903500                       # number of overall miss cycles
system.cpu.dcache.overall_miss_latency::total   2150903500                       # number of overall miss cycles
system.cpu.dcache.demand_accesses::.cpu.data     43917530                       # number of demand (read+write) accesses
system.cpu.dcache.demand_accesses::total     43917530                       # number of demand (read+write) accesses
system.cpu.dcache.overall_accesses::.cpu.data     43926242                       # number of overall (read+write) accesses
system.cpu.dcache.overall_accesses::total     43926242                       # number of overall (read+write) accesses
system.cpu.dcache.demand_miss_rate::.cpu.data     0.002276                       # miss rate for demand accesses
system.cpu.dcache.demand_miss_rate::total     0.002276                       # miss rate for demand accesses
system.cpu.dcache.overall_miss_rate::.cpu.data     0.002279                       # miss rate for overall accesses
system.cpu.dcache.overall_miss_rate::total     0.002279                       # miss rate for overall accesses
system.cpu.dcache.demand_avg_miss_latency::.cpu.data 21517.211540                       # average overall miss latency
system.cpu.dcache.demand_avg_miss_latency::total 21517.211540                       # average overall miss latency
system.cpu.dcache.overall_avg_miss_latency::.cpu.data 21488.620810                       # average overall miss latency
system.cpu.dcache.overall_avg_miss_latency::total 21488.620810                       # average overall miss latency
system.cpu.dcache.blocked_cycles::no_mshrs          583                       # number of cycles access was blocked
system.cpu.dcache.blocked_cycles::no_targets            0                       # number of cycles access was blocked
system.cpu.dcache.blocked::no_mshrs                 5                       # number of cycles access was blocked
system.cpu.dcache.blocked::no_targets               0                       # number of cycles access was blocked
system.cpu.dcache.avg_blocked_cycles::no_mshrs   116.600000                       # average number of cycles each access was blocked
system.cpu.dcache.avg_blocked_cycles::no_targets          nan                       # average number of cycles each access was blocked
system.cpu.dcache.writebacks::.writebacks        86841                       # number of writebacks
system.cpu.dcache.writebacks::total             86841                       # number of writebacks
system.cpu.dcache.demand_mshr_hits::.cpu.data         7648                       # number of demand (read+write) MSHR hits
system.cpu.dcache.demand_mshr_hits::total         7648                       # number of demand (read+write) MSHR hits
system.cpu.dcache.overall_mshr_hits::.cpu.data         7648                       # number of overall MSHR hits
system.cpu.dcache.overall_mshr_hits::total         7648                       # number of overall MSHR hits
system.cpu.dcache.demand_mshr_misses::.cpu.data        92314                       # number of demand (read+write) MSHR misses
system.cpu.dcache.demand_mshr_misses::total        92314                       # number of demand (read+write) MSHR misses
system.cpu.dcache.overall_mshr_misses::.cpu.data        92446                       # number of overall MSHR misses
system.cpu.dcache.overall_mshr_misses::total        92446                       # number of overall MSHR misses
system.cpu.dcache.demand_mshr_miss_latency::.cpu.data   1651970500                       # number of demand (read+write) MSHR miss cycles
system.cpu.dcache.demand_mshr_miss_latency::total   1651970500                       # number of demand (read+write) MSHR miss cycles
system.cpu.dcache.overall_mshr_miss_latency::.cpu.data   1662261500                       # number of overall MSHR miss cycles
system.cpu.dcache.overall_mshr_miss_latency::total   1662261500                       # number of overall MSHR miss cycles
system.cpu.dcache.demand_mshr_miss_rate::.cpu.data     0.002102                       # mshr miss rate for demand accesses
system.cpu.dcache.demand_mshr_miss_rate::total     0.002102                       # mshr miss rate for demand accesses
system.cpu.dcache.overall_mshr_miss_rate::.cpu.data     0.002105                       # mshr miss rate for overall accesses
system.cpu.dcache.overall_mshr_miss_rate::total     0.002105                       # mshr miss rate for overall accesses
system.cpu.dcache.demand_avg_mshr_miss_latency::.cpu.data 17895.124250                       # average overall mshr miss latency
system.cpu.dcache.demand_avg_mshr_miss_latency::total 17895.124250                       # average overall mshr miss latency
system.cpu.dcache.overall_avg_mshr_miss_latency::.cpu.data 17980.891547                       # average overall mshr miss latency
system.cpu.dcache.overall_avg_mshr_miss_latency::total 17980.891547                       # average overall mshr miss latency
system.cpu.dcache.replacements                  88351                       # number of replacements
system.cpu.dcache.ReadReq_hits::.cpu.data     37565018                       # number of ReadReq hits
system.cpu.dcache.ReadReq_hits::total        37565018                       # number of ReadReq hits
system.cpu.dcache.ReadReq_misses::.cpu.data        31592                       # number of ReadReq misses
system.cpu.dcache.ReadReq_misses::total         31592                       # number of ReadReq misses
system.cpu.dcache.ReadReq_miss_latency::.cpu.data    482391000                       # number of ReadReq miss cycles
system.cpu.dcache.ReadReq_miss_latency::total    482391000                       # number of ReadReq miss cycles
system.cpu.dcache.ReadReq_accesses::.cpu.data     37596610                       # number of ReadReq accesses(hits+misses)
system.cpu.dcache.ReadReq_accesses::total     37596610                       # number of ReadReq accesses(hits+misses)
system.cpu.dcache.ReadReq_miss_rate::.cpu.data     0.000840                       # miss rate for ReadReq accesses
system.cpu.dcache.ReadReq_miss_rate::total     0.000840                       # miss rate for ReadReq accesses
system.cpu.dcache.ReadReq_avg_miss_latency::.cpu.data 15269.403646                       # average ReadReq miss latency
system.cpu.dcache.ReadReq_avg_miss_latency::total 15269.403646                       # average ReadReq miss latency
system.cpu.dcache.ReadReq_mshr_hits::.cpu.data          234                       # number of ReadReq MSHR hits
system.cpu.dcache.ReadReq_mshr_hits::total          234                       # number of ReadReq MSHR hits
system.cpu.dcache.ReadReq_mshr_misses::.cpu.data        31358                       # number of ReadReq MSHR misses
system.cpu.dcache.ReadReq_mshr_misses::total        31358                       # number of ReadReq MSHR misses
system.cpu.dcache.ReadReq_mshr_miss_latency::.cpu.data    440669000                       # number of ReadReq MSHR miss cycles
system.cpu.dcache.ReadReq_mshr_miss_latency::total    440669000                       # number of ReadReq MSHR miss cycles
system.cpu.dcache.ReadReq_mshr_miss_rate::.cpu.data     0.000834                       # mshr miss rate for ReadReq accesses
system.cpu.dcache.ReadReq_mshr_miss_rate::total     0.000834                       # mshr miss rate for ReadReq accesses
system.cpu.dcache.ReadReq_avg_mshr_miss_latency::.cpu.data 14052.841380                       # average ReadReq mshr miss latency
system.cpu.dcache.ReadReq_avg_mshr_miss_latency::total 14052.841380                       # average ReadReq mshr miss latency
system.cpu.dcache.WriteReq_hits::.cpu.data      6252550                       # number of WriteReq hits
system.cpu.dcache.WriteReq_hits::total        6252550                       # number of WriteReq hits
system.cpu.dcache.WriteReq_misses::.cpu.data        68370                       # number of WriteReq misses
system.cpu.dcache.WriteReq_misses::total        68370                       # number of WriteReq misses
system.cpu.dcache.WriteReq_miss_latency::.cpu.data   1668512500                       # number of WriteReq miss cycles
system.cpu.dcache.WriteReq_miss_latency::total   1668512500                       # number of WriteReq miss cycles
system.cpu.dcache.WriteReq_accesses::.cpu.data      6320920                       # number of WriteReq accesses(hits+misses)
system.cpu.dcache.WriteReq_accesses::total      6320920                       # number of WriteReq accesses(hits+misses)
system.cpu.dcache.WriteReq_miss_rate::.cpu.data     0.010816                       # miss rate for WriteReq accesses
system.cpu.dcache.WriteReq_miss_rate::total     0.010816                       # miss rate for WriteReq accesses
system.cpu.dcache.WriteReq_avg_miss_latency::.cpu.data 24404.161182                       # average WriteReq miss latency
system.cpu.dcache.WriteReq_avg_miss_latency::total 24404.161182                       # average WriteReq miss latency
system.cpu.dcache.WriteReq_mshr_hits::.cpu.data         7414                       # number of WriteReq MSHR hits
system.cpu.dcache.WriteReq_mshr_hits::total         7414                       # number of WriteReq MSHR hits
system.cpu.dcache.WriteReq_mshr_misses::.cpu.data        60956                       # number of WriteReq MSHR misses
system.cpu.dcache.WriteReq_mshr_misses::total        60956                       # number of WriteReq MSHR misses
system.cpu.dcache.WriteReq_mshr_miss_latency::.cpu.data   1211301500                       # number of WriteReq MSHR miss cycles
system.cpu.dcache.WriteReq_mshr_miss_latency::total   1211301500                       # number of WriteReq MSHR miss cycles
system.cpu.dcache.WriteReq_mshr_miss_rate::.cpu.data     0.009644                       # mshr miss rate for WriteReq accesses
system.cpu.dcache.WriteReq_mshr_miss_rate::total     0.009644                       # mshr miss rate for WriteReq accesses
system.cpu.dcache.WriteReq_avg_mshr_miss_latency::.cpu.data 19871.735350                       # average WriteReq mshr miss latency
system.cpu.dcache.WriteReq_avg_mshr_miss_latency::total 19871.735350                       # average WriteReq mshr miss latency
system.cpu.dcache.SoftPFReq_hits::.cpu.data         8579                       # number of SoftPFReq hits
system.cpu.dcache.SoftPFReq_hits::total          8579                       # number of SoftPFReq hits
system.cpu.dcache.SoftPFReq_misses::.cpu.data          133                       # number of SoftPFReq misses
system.cpu.dcache.SoftPFReq_misses::total          133                       # number of SoftPFReq misses
system.cpu.dcache.SoftPFReq_accesses::.cpu.data         8712                       # number of SoftPFReq accesses(hits+misses)
system.cpu.dcache.SoftPFReq_accesses::total         8712                       # number of SoftPFReq accesses(hits+misses)
system.cpu.dcache.SoftPFReq_miss_rate::.cpu.data     0.015266                       # miss rate for SoftPFReq accesses
system.cpu.dcache.SoftPFReq_miss_rate::total     0.015266                       # miss rate for SoftPFReq accesses
system.cpu.dcache.SoftPFReq_mshr_misses::.cpu.data          132                       # number of SoftPFReq MSHR misses
system.cpu.dcache.SoftPFReq_mshr_misses::total          132                       # number of SoftPFReq MSHR misses
system.cpu.dcache.SoftPFReq_mshr_miss_latency::.cpu.data     10291000                       # number of SoftPFReq MSHR miss cycles
system.cpu.dcache.SoftPFReq_mshr_miss_latency::total     10291000                       # number of SoftPFReq MSHR miss cycles
system.cpu.dcache.SoftPFReq_mshr_miss_rate::.cpu.data     0.015152                       # mshr miss rate for SoftPFReq accesses
system.cpu.dcache.SoftPFReq_mshr_miss_rate::total     0.015152                       # mshr miss rate for SoftPFReq accesses
system.cpu.dcache.SoftPFReq_avg_mshr_miss_latency::.cpu.data 77962.121212                       # average SoftPFReq mshr miss latency
system.cpu.dcache.SoftPFReq_avg_mshr_miss_latency::total 77962.121212                       # average SoftPFReq mshr miss latency
system.cpu.dcache.LoadLockedReq_hits::.cpu.data          165                       # number of LoadLockedReq hits
system.cpu.dcache.LoadLockedReq_hits::total          165                       # number of LoadLockedReq hits
system.cpu.dcache.LoadLockedReq_misses::.cpu.data            1                       # number of LoadLockedReq misses
system.cpu.dcache.LoadLockedReq_misses::total            1                       # number of LoadLockedReq misses
system.cpu.dcache.LoadLockedReq_miss_latency::.cpu.data        76000                       # number of LoadLockedReq miss cycles
system.cpu.dcache.LoadLockedReq_miss_latency::total        76000                       # number of LoadLockedReq miss cycles
system.cpu.dcache.LoadLockedReq_accesses::.cpu.data          166                       # number of LoadLockedReq accesses(hits+misses)
system.cpu.dcache.LoadLockedReq_accesses::total          166                       # number of LoadLockedReq accesses(hits+misses)
system.cpu.dcache.LoadLockedReq_miss_rate::.cpu.data     0.006024                       # miss rate for LoadLockedReq accesses
system.cpu.dcache.LoadLockedReq_miss_rate::total     0.006024                       # miss rate for LoadLockedReq accesses
system.cpu.dcache.LoadLockedReq_avg_miss_latency::.cpu.data        76000                       # average LoadLockedReq miss latency
system.cpu.dcache.LoadLockedReq_avg_miss_latency::total        76000                       # average LoadLockedReq miss latency
system.cpu.dcache.LoadLockedReq_mshr_misses::.cpu.data            1                       # number of LoadLockedReq MSHR misses
system.cpu.dcache.LoadLockedReq_mshr_misses::total            1                       # number of LoadLockedReq MSHR misses
system.cpu.dcache.LoadLockedReq_mshr_miss_latency::.cpu.data        75000                       # number of LoadLockedReq MSHR miss cycles
system.cpu.dcache.LoadLockedReq_mshr_miss_latency::total        75000                       # number of LoadLockedReq MSHR miss cycles
system.cpu.dcache.LoadLockedReq_mshr_miss_rate::.cpu.data     0.006024                       # mshr miss rate for LoadLockedReq accesses
system.cpu.dcache.LoadLockedReq_mshr_miss_rate::total     0.006024                       # mshr miss rate for LoadLockedReq accesses
system.cpu.dcache.LoadLockedReq_avg_mshr_miss_latency::.cpu.data        75000                       # average LoadLockedReq mshr miss latency
system.cpu.dcache.LoadLockedReq_avg_mshr_miss_latency::total        75000                       # average LoadLockedReq mshr miss latency
system.cpu.dcache.StoreCondReq_hits::.cpu.data          166                       # number of StoreCondReq hits
system.cpu.dcache.StoreCondReq_hits::total          166                       # number of StoreCondReq hits
system.cpu.dcache.StoreCondReq_accesses::.cpu.data          166                       # number of StoreCondReq accesses(hits+misses)
system.cpu.dcache.StoreCondReq_accesses::total          166                       # number of StoreCondReq accesses(hits+misses)
system.cpu.dcache.tags.pwrStateResidencyTicks::UNDEFINED  59901516000                       # Cumulative time (in ticks) in various power states
system.cpu.dcache.tags.tagsinuse          4001.607844                       # Cycle average of tags in use
system.cpu.dcache.tags.total_refs            43918925                       # Total number of references to valid blocks.
system.cpu.dcache.tags.sampled_refs             92447                       # Sample count of references to valid blocks.
system.cpu.dcache.tags.avg_refs            475.071392                       # Average number of references to valid blocks.
system.cpu.dcache.tags.warmup_cycle            176500                       # Cycle when the warmup percentage was hit.
system.cpu.dcache.tags.occ_blocks::.cpu.data  4001.607844                       # Average occupied blocks per requestor
system.cpu.dcache.tags.occ_percent::.cpu.data     0.976955                       # Average percentage of cache occupancy
system.cpu.dcache.tags.occ_percent::total     0.976955                       # Average percentage of cache occupancy
system.cpu.dcache.tags.occ_task_id_blocks::1024         4096                       # Occupied blocks per task id
system.cpu.dcache.tags.age_task_id_blocks_1024::0           20                       # Occupied blocks per task id
system.cpu.dcache.tags.age_task_id_blocks_1024::1          142                       # Occupied blocks per task id
system.cpu.dcache.tags.age_task_id_blocks_1024::2          831                       # Occupied blocks per task id
system.cpu.dcache.tags.age_task_id_blocks_1024::3          770                       # Occupied blocks per task id
system.cpu.dcache.tags.age_task_id_blocks_1024::4         2333                       # Occupied blocks per task id
system.cpu.dcache.tags.occ_task_id_percent::1024            1                       # Percentage of cache occupancy per task id
system.cpu.dcache.tags.tag_accesses          44019021                       # Number of tag accesses
system.cpu.dcache.tags.data_accesses         44019021                       # Number of data accesses
system.cpu.itb.walker.pwrStateResidencyTicks::UNDEFINED  59901516000                       # Cumulative time (in ticks) in various power states
system.cpu.itb.stage2_mmu.stage2_tlb.walker.pwrStateResidencyTicks::UNDEFINED  59901516000                       # Cumulative time (in ticks) in various power states

---------- End Simulation Statistics   ----------
