
---------- Begin Simulation Statistics ----------
final_tick                               319151275223                       # Number of ticks from beginning of simulation (restored from checkpoints and never reset)
host_inst_rate                                 319366                       # Simulator instruction rate (inst/s)
host_mem_usage                                 696744                       # Number of bytes of host memory used
host_op_rate                                   319377                       # Simulator op (including micro ops) rate (op/s)
host_seconds                                   313.12                       # Real time elapsed on the host
host_tick_rate                             1019260027                       # Simulator tick rate (ticks/s)
sim_freq                                 1000000000000                       # Frequency of simulated ticks
sim_insts                                   100000000                       # Number of instructions simulated
sim_ops                                     100003637                       # Number of ops (including micro ops) simulated
sim_seconds                                  0.319151                       # Number of seconds simulated
sim_ticks                                319151275223                       # Number of ticks simulated
system.cpu.branchPred.BTBCorrect                    0                       # Number of correct BTB predictions (this stat may not work properly.
system.cpu.branchPred.BTBHitPct             99.567972                       # BTB Hit Percentage
system.cpu.branchPred.BTBHits                  596908                       # Number of BTB hits
system.cpu.branchPred.BTBLookups               599498                       # Number of BTB lookups
system.cpu.branchPred.RASInCorrect                  7                       # Number of incorrect RAS predictions.
system.cpu.branchPred.condIncorrect               867                       # Number of conditional branches incorrect
system.cpu.branchPred.condPredicted            599693                       # Number of conditional branches predicted
system.cpu.branchPred.indirectHits                163                       # Number of indirect target hits.
system.cpu.branchPred.indirectLookups             363                       # Number of indirect predictor lookups.
system.cpu.branchPred.indirectMisses              200                       # Number of indirect misses.
system.cpu.branchPred.lookups                  601686                       # Number of BP lookups
system.cpu.branchPred.usedRAS                     571                       # Number of times the RAS was used to get a target.
system.cpu.branchPredindirectMispredicted          112                       # Number of mispredicted indirect branches.
system.cpu.committedInsts                   100000000                       # Number of instructions committed
system.cpu.committedOps                     100003637                       # Number of ops (including micro ops) committed
system.cpu.cpi                               4.784877                       # CPI: cycles per instruction
system.cpu.discardedOps                          2611                       # Number of ops (including micro ops) which were discarded before commit
system.cpu.dtb.accesses                             0                       # DTB accesses
system.cpu.dtb.align_faults                         0                       # Number of TLB faults due to alignment restrictions
system.cpu.dtb.domain_faults                        0                       # Number of TLB faults due to domain restrictions
system.cpu.dtb.flush_entries                        0                       # Number of entries that have been flushed from TLB
system.cpu.dtb.flush_tlb                            0                       # Number of times complete TLB was flushed
system.cpu.dtb.flush_tlb_asid                       0                       # Number of times TLB was flushed by ASID
system.cpu.dtb.flush_tlb_mva                        0                       # Number of times TLB was flushed by MVA
system.cpu.dtb.flush_tlb_mva_asid                   0                       # Number of times TLB was flushed by MVA & ASID
system.cpu.dtb.hits                                 0                       # DTB hits
system.cpu.dtb.inst_accesses                        0                       # ITB inst accesses
system.cpu.dtb.inst_hits                            0                       # ITB inst hits
system.cpu.dtb.inst_misses                          0                       # ITB inst misses
system.cpu.dtb.misses                               0                       # DTB misses
system.cpu.dtb.perms_faults                         0                       # Number of TLB faults due to permissions restrictions
system.cpu.dtb.prefetch_faults                      0                       # Number of TLB faults due to prefetch
system.cpu.dtb.read_accesses                        0                       # DTB read accesses
system.cpu.dtb.read_hits                            0                       # DTB read hits
system.cpu.dtb.read_misses                          0                       # DTB read misses
system.cpu.dtb.stage2_mmu.stage2_tlb.accesses            0                       # DTB accesses
system.cpu.dtb.stage2_mmu.stage2_tlb.align_faults            0                       # Number of TLB faults due to alignment restrictions
system.cpu.dtb.stage2_mmu.stage2_tlb.domain_faults            0                       # Number of TLB faults due to domain restrictions
system.cpu.dtb.stage2_mmu.stage2_tlb.flush_entries            0                       # Number of entries that have been flushed from TLB
system.cpu.dtb.stage2_mmu.stage2_tlb.flush_tlb            0                       # Number of times complete TLB was flushed
system.cpu.dtb.stage2_mmu.stage2_tlb.flush_tlb_asid            0                       # Number of times TLB was flushed by ASID
system.cpu.dtb.stage2_mmu.stage2_tlb.flush_tlb_mva            0                       # Number of times TLB was flushed by MVA
system.cpu.dtb.stage2_mmu.stage2_tlb.flush_tlb_mva_asid            0                       # Number of times TLB was flushed by MVA & ASID
system.cpu.dtb.stage2_mmu.stage2_tlb.hits            0                       # DTB hits
system.cpu.dtb.stage2_mmu.stage2_tlb.inst_accesses            0                       # ITB inst accesses
system.cpu.dtb.stage2_mmu.stage2_tlb.inst_hits            0                       # ITB inst hits
system.cpu.dtb.stage2_mmu.stage2_tlb.inst_misses            0                       # ITB inst misses
system.cpu.dtb.stage2_mmu.stage2_tlb.misses            0                       # DTB misses
system.cpu.dtb.stage2_mmu.stage2_tlb.perms_faults            0                       # Number of TLB faults due to permissions restrictions
system.cpu.dtb.stage2_mmu.stage2_tlb.prefetch_faults            0                       # Number of TLB faults due to prefetch
system.cpu.dtb.stage2_mmu.stage2_tlb.read_accesses            0                       # DTB read accesses
system.cpu.dtb.stage2_mmu.stage2_tlb.read_hits            0                       # DTB read hits
system.cpu.dtb.stage2_mmu.stage2_tlb.read_misses            0                       # DTB read misses
system.cpu.dtb.stage2_mmu.stage2_tlb.walker.walkRequestOrigin_Requested::Data            0                       # Table walker requests started/completed, data/inst
system.cpu.dtb.stage2_mmu.stage2_tlb.walker.walkRequestOrigin_Requested::Inst            0                       # Table walker requests started/completed, data/inst
system.cpu.dtb.stage2_mmu.stage2_tlb.walker.walkRequestOrigin_Requested::total            0                       # Table walker requests started/completed, data/inst
system.cpu.dtb.stage2_mmu.stage2_tlb.walker.walkRequestOrigin_Completed::Data            0                       # Table walker requests started/completed, data/inst
system.cpu.dtb.stage2_mmu.stage2_tlb.walker.walkRequestOrigin_Completed::Inst            0                       # Table walker requests started/completed, data/inst
system.cpu.dtb.stage2_mmu.stage2_tlb.walker.walkRequestOrigin_Completed::total            0                       # Table walker requests started/completed, data/inst
system.cpu.dtb.stage2_mmu.stage2_tlb.walker.walkRequestOrigin::total            0                       # Table walker requests started/completed, data/inst
system.cpu.dtb.stage2_mmu.stage2_tlb.walker.walks            0                       # Table walker walks requested
system.cpu.dtb.stage2_mmu.stage2_tlb.write_accesses            0                       # DTB write accesses
system.cpu.dtb.stage2_mmu.stage2_tlb.write_hits            0                       # DTB write hits
system.cpu.dtb.stage2_mmu.stage2_tlb.write_misses            0                       # DTB write misses
system.cpu.dtb.walker.walkRequestOrigin_Requested::Data            0                       # Table walker requests started/completed, data/inst
system.cpu.dtb.walker.walkRequestOrigin_Requested::Inst            0                       # Table walker requests started/completed, data/inst
system.cpu.dtb.walker.walkRequestOrigin_Requested::total            0                       # Table walker requests started/completed, data/inst
system.cpu.dtb.walker.walkRequestOrigin_Completed::Data            0                       # Table walker requests started/completed, data/inst
system.cpu.dtb.walker.walkRequestOrigin_Completed::Inst            0                       # Table walker requests started/completed, data/inst
system.cpu.dtb.walker.walkRequestOrigin_Completed::total            0                       # Table walker requests started/completed, data/inst
system.cpu.dtb.walker.walkRequestOrigin::total            0                       # Table walker requests started/completed, data/inst
system.cpu.dtb.walker.walks                         0                       # Table walker walks requested
system.cpu.dtb.write_accesses                       0                       # DTB write accesses
system.cpu.dtb.write_hits                           0                       # DTB write hits
system.cpu.dtb.write_misses                         0                       # DTB write misses
system.cpu.fetch2.amo_instructions                  0                       # Number of memory atomic instructions successfully decoded
system.cpu.fetch2.fp_instructions                   0                       # Number of floating point instructions successfully decoded
system.cpu.fetch2.int_instructions           49410810                       # Number of integer instructions successfully decoded
system.cpu.fetch2.load_instructions          36900782                       # Number of memory load instructions successfully decoded
system.cpu.fetch2.store_instructions         13094334                       # Number of memory store instructions successfully decoded
system.cpu.fetch2.vec_instructions                  0                       # Number of SIMD instructions successfully decoded
system.cpu.idleCycles                       356443079                       # Total number of cycles that the object has spent stopped
system.cpu.ipc                               0.208992                       # IPC: instructions per cycle
system.cpu.itb.accesses                             0                       # DTB accesses
system.cpu.itb.align_faults                         0                       # Number of TLB faults due to alignment restrictions
system.cpu.itb.domain_faults                        0                       # Number of TLB faults due to domain restrictions
system.cpu.itb.flush_entries                        0                       # Number of entries that have been flushed from TLB
system.cpu.itb.flush_tlb                            0                       # Number of times complete TLB was flushed
system.cpu.itb.flush_tlb_asid                       0                       # Number of times TLB was flushed by ASID
system.cpu.itb.flush_tlb_mva                        0                       # Number of times TLB was flushed by MVA
system.cpu.itb.flush_tlb_mva_asid                   0                       # Number of times TLB was flushed by MVA & ASID
system.cpu.itb.hits                                 0                       # DTB hits
system.cpu.itb.inst_accesses                        0                       # ITB inst accesses
system.cpu.itb.inst_hits                            0                       # ITB inst hits
system.cpu.itb.inst_misses                          0                       # ITB inst misses
system.cpu.itb.misses                               0                       # DTB misses
system.cpu.itb.perms_faults                         0                       # Number of TLB faults due to permissions restrictions
system.cpu.itb.prefetch_faults                      0                       # Number of TLB faults due to prefetch
system.cpu.itb.read_accesses                        0                       # DTB read accesses
system.cpu.itb.read_hits                            0                       # DTB read hits
system.cpu.itb.read_misses                          0                       # DTB read misses
system.cpu.itb.stage2_mmu.stage2_tlb.accesses            0                       # DTB accesses
system.cpu.itb.stage2_mmu.stage2_tlb.align_faults            0                       # Number of TLB faults due to alignment restrictions
system.cpu.itb.stage2_mmu.stage2_tlb.domain_faults            0                       # Number of TLB faults due to domain restrictions
system.cpu.itb.stage2_mmu.stage2_tlb.flush_entries            0                       # Number of entries that have been flushed from TLB
system.cpu.itb.stage2_mmu.stage2_tlb.flush_tlb            0                       # Number of times complete TLB was flushed
system.cpu.itb.stage2_mmu.stage2_tlb.flush_tlb_asid            0                       # Number of times TLB was flushed by ASID
system.cpu.itb.stage2_mmu.stage2_tlb.flush_tlb_mva            0                       # Number of times TLB was flushed by MVA
system.cpu.itb.stage2_mmu.stage2_tlb.flush_tlb_mva_asid            0                       # Number of times TLB was flushed by MVA & ASID
system.cpu.itb.stage2_mmu.stage2_tlb.hits            0                       # DTB hits
system.cpu.itb.stage2_mmu.stage2_tlb.inst_accesses            0                       # ITB inst accesses
system.cpu.itb.stage2_mmu.stage2_tlb.inst_hits            0                       # ITB inst hits
system.cpu.itb.stage2_mmu.stage2_tlb.inst_misses            0                       # ITB inst misses
system.cpu.itb.stage2_mmu.stage2_tlb.misses            0                       # DTB misses
system.cpu.itb.stage2_mmu.stage2_tlb.perms_faults            0                       # Number of TLB faults due to permissions restrictions
system.cpu.itb.stage2_mmu.stage2_tlb.prefetch_faults            0                       # Number of TLB faults due to prefetch
system.cpu.itb.stage2_mmu.stage2_tlb.read_accesses            0                       # DTB read accesses
system.cpu.itb.stage2_mmu.stage2_tlb.read_hits            0                       # DTB read hits
system.cpu.itb.stage2_mmu.stage2_tlb.read_misses            0                       # DTB read misses
system.cpu.itb.stage2_mmu.stage2_tlb.walker.walkRequestOrigin_Requested::Data            0                       # Table walker requests started/completed, data/inst
system.cpu.itb.stage2_mmu.stage2_tlb.walker.walkRequestOrigin_Requested::Inst            0                       # Table walker requests started/completed, data/inst
system.cpu.itb.stage2_mmu.stage2_tlb.walker.walkRequestOrigin_Requested::total            0                       # Table walker requests started/completed, data/inst
system.cpu.itb.stage2_mmu.stage2_tlb.walker.walkRequestOrigin_Completed::Data            0                       # Table walker requests started/completed, data/inst
system.cpu.itb.stage2_mmu.stage2_tlb.walker.walkRequestOrigin_Completed::Inst            0                       # Table walker requests started/completed, data/inst
system.cpu.itb.stage2_mmu.stage2_tlb.walker.walkRequestOrigin_Completed::total            0                       # Table walker requests started/completed, data/inst
system.cpu.itb.stage2_mmu.stage2_tlb.walker.walkRequestOrigin::total            0                       # Table walker requests started/completed, data/inst
system.cpu.itb.stage2_mmu.stage2_tlb.walker.walks            0                       # Table walker walks requested
system.cpu.itb.stage2_mmu.stage2_tlb.write_accesses            0                       # DTB write accesses
system.cpu.itb.stage2_mmu.stage2_tlb.write_hits            0                       # DTB write hits
system.cpu.itb.stage2_mmu.stage2_tlb.write_misses            0                       # DTB write misses
system.cpu.itb.walker.walkRequestOrigin_Requested::Data            0                       # Table walker requests started/completed, data/inst
system.cpu.itb.walker.walkRequestOrigin_Requested::Inst            0                       # Table walker requests started/completed, data/inst
system.cpu.itb.walker.walkRequestOrigin_Requested::total            0                       # Table walker requests started/completed, data/inst
system.cpu.itb.walker.walkRequestOrigin_Completed::Data            0                       # Table walker requests started/completed, data/inst
system.cpu.itb.walker.walkRequestOrigin_Completed::Inst            0                       # Table walker requests started/completed, data/inst
system.cpu.itb.walker.walkRequestOrigin_Completed::total            0                       # Table walker requests started/completed, data/inst
system.cpu.itb.walker.walkRequestOrigin::total            0                       # Table walker requests started/completed, data/inst
system.cpu.itb.walker.walks                         0                       # Table walker walks requested
system.cpu.itb.write_accesses                       0                       # DTB write accesses
system.cpu.itb.write_hits                           0                       # DTB write hits
system.cpu.itb.write_misses                         0                       # DTB write misses
system.cpu.numCycles                        478487669                       # number of cpu cycles simulated
system.cpu.numFetchSuspends                         0                       # Number of times Execute suspended instruction fetching
system.cpu.numWorkItemsCompleted                    0                       # number of work items this cpu completed
system.cpu.numWorkItemsStarted                      0                       # number of work items this cpu started
system.cpu.op_class_0::No_OpClass                   0      0.00%      0.00% # Class of committed instruction
system.cpu.op_class_0::IntAlu                50006957     50.01%     50.01% # Class of committed instruction
system.cpu.op_class_0::IntMult                     85      0.00%     50.01% # Class of committed instruction
system.cpu.op_class_0::IntDiv                       0      0.00%     50.01% # Class of committed instruction
system.cpu.op_class_0::FloatAdd                     0      0.00%     50.01% # Class of committed instruction
system.cpu.op_class_0::FloatCmp                     0      0.00%     50.01% # Class of committed instruction
system.cpu.op_class_0::FloatCvt                     0      0.00%     50.01% # Class of committed instruction
system.cpu.op_class_0::FloatMult                    0      0.00%     50.01% # Class of committed instruction
system.cpu.op_class_0::FloatMultAcc                 0      0.00%     50.01% # Class of committed instruction
system.cpu.op_class_0::FloatDiv                     0      0.00%     50.01% # Class of committed instruction
system.cpu.op_class_0::FloatMisc                    0      0.00%     50.01% # Class of committed instruction
system.cpu.op_class_0::FloatSqrt                    0      0.00%     50.01% # Class of committed instruction
system.cpu.op_class_0::SimdAdd                      0      0.00%     50.01% # Class of committed instruction
system.cpu.op_class_0::SimdAddAcc                   0      0.00%     50.01% # Class of committed instruction
system.cpu.op_class_0::SimdAlu                      0      0.00%     50.01% # Class of committed instruction
system.cpu.op_class_0::SimdCmp                      0      0.00%     50.01% # Class of committed instruction
system.cpu.op_class_0::SimdCvt                      0      0.00%     50.01% # Class of committed instruction
system.cpu.op_class_0::SimdMisc                     0      0.00%     50.01% # Class of committed instruction
system.cpu.op_class_0::SimdMult                     0      0.00%     50.01% # Class of committed instruction
system.cpu.op_class_0::SimdMultAcc                  0      0.00%     50.01% # Class of committed instruction
system.cpu.op_class_0::SimdShift                    0      0.00%     50.01% # Class of committed instruction
system.cpu.op_class_0::SimdShiftAcc                 0      0.00%     50.01% # Class of committed instruction
system.cpu.op_class_0::SimdDiv                      0      0.00%     50.01% # Class of committed instruction
system.cpu.op_class_0::SimdSqrt                     0      0.00%     50.01% # Class of committed instruction
system.cpu.op_class_0::SimdFloatAdd                 0      0.00%     50.01% # Class of committed instruction
system.cpu.op_class_0::SimdFloatAlu                 0      0.00%     50.01% # Class of committed instruction
system.cpu.op_class_0::SimdFloatCmp                 2      0.00%     50.01% # Class of committed instruction
system.cpu.op_class_0::SimdFloatCvt                 0      0.00%     50.01% # Class of committed instruction
system.cpu.op_class_0::SimdFloatDiv                 0      0.00%     50.01% # Class of committed instruction
system.cpu.op_class_0::SimdFloatMisc               22      0.00%     50.01% # Class of committed instruction
system.cpu.op_class_0::SimdFloatMult                0      0.00%     50.01% # Class of committed instruction
system.cpu.op_class_0::SimdFloatMultAcc             0      0.00%     50.01% # Class of committed instruction
system.cpu.op_class_0::SimdFloatSqrt                0      0.00%     50.01% # Class of committed instruction
system.cpu.op_class_0::SimdReduceAdd                0      0.00%     50.01% # Class of committed instruction
system.cpu.op_class_0::SimdReduceAlu                0      0.00%     50.01% # Class of committed instruction
system.cpu.op_class_0::SimdReduceCmp                0      0.00%     50.01% # Class of committed instruction
system.cpu.op_class_0::SimdFloatReduceAdd            0      0.00%     50.01% # Class of committed instruction
system.cpu.op_class_0::SimdFloatReduceCmp            0      0.00%     50.01% # Class of committed instruction
system.cpu.op_class_0::SimdAes                      0      0.00%     50.01% # Class of committed instruction
system.cpu.op_class_0::SimdAesMix                   0      0.00%     50.01% # Class of committed instruction
system.cpu.op_class_0::SimdSha1Hash                 0      0.00%     50.01% # Class of committed instruction
system.cpu.op_class_0::SimdSha1Hash2                0      0.00%     50.01% # Class of committed instruction
system.cpu.op_class_0::SimdSha256Hash               0      0.00%     50.01% # Class of committed instruction
system.cpu.op_class_0::SimdSha256Hash2              0      0.00%     50.01% # Class of committed instruction
system.cpu.op_class_0::SimdShaSigma2                0      0.00%     50.01% # Class of committed instruction
system.cpu.op_class_0::SimdShaSigma3                0      0.00%     50.01% # Class of committed instruction
system.cpu.op_class_0::SimdPredAlu                  0      0.00%     50.01% # Class of committed instruction
system.cpu.op_class_0::MemRead               36900878     36.90%     86.90% # Class of committed instruction
system.cpu.op_class_0::MemWrite              13095693     13.10%    100.00% # Class of committed instruction
system.cpu.op_class_0::FloatMemRead                 0      0.00%    100.00% # Class of committed instruction
system.cpu.op_class_0::FloatMemWrite                0      0.00%    100.00% # Class of committed instruction
system.cpu.op_class_0::IprAccess                    0      0.00%    100.00% # Class of committed instruction
system.cpu.op_class_0::InstPrefetch                 0      0.00%    100.00% # Class of committed instruction
system.cpu.op_class_0::total                100003637                       # Class of committed instruction
system.cpu.tickCycles                       122044590                       # Number of cycles that the object actually ticked
system.cpu.workload.numSyscalls                    18                       # Number of system calls
system.membus.snoop_filter.hit_multi_requests            0                       # Number of requests hitting in the snoop filter with multiple (>1) holders of the requested data.
system.membus.snoop_filter.hit_multi_snoops            0                       # Number of snoops hitting in the snoop filter with multiple (>1) holders of the requested data.
system.membus.snoop_filter.hit_single_requests      2943065                       # Number of requests hitting in the snoop filter with a single holder of the requested data.
system.membus.snoop_filter.hit_single_snoops            0                       # Number of snoops hitting in the snoop filter with a single holder of the requested data.
system.membus.snoop_filter.tot_requests       5919671                       # Total number of requests made to the snoop filter.
system.membus.snoop_filter.tot_snoops               0                       # Total number of snoops made to the snoop filter.
system.tol2bus.snoop_filter.hit_multi_requests         2932                       # Number of requests hitting in the snoop filter with multiple (>1) holders of the requested data.
system.tol2bus.snoop_filter.hit_multi_snoops            0                       # Number of snoops hitting in the snoop filter with multiple (>1) holders of the requested data.
system.tol2bus.snoop_filter.hit_single_requests      2982537                       # Number of requests hitting in the snoop filter with a single holder of the requested data.
system.tol2bus.snoop_filter.hit_single_snoops          773                       # Number of snoops hitting in the snoop filter with a single holder of the requested data.
system.tol2bus.snoop_filter.tot_requests      5967895                       # Total number of requests made to the snoop filter.
system.tol2bus.snoop_filter.tot_snoops            773                       # Total number of snoops made to the snoop filter.
system.membus.pwrStateResidencyTicks::UNDEFINED 319151275223                       # Cumulative time (in ticks) in various power states
system.membus.trans_dist::ReadResp                924                       # Transaction distribution
system.membus.trans_dist::WritebackDirty      2942939                       # Transaction distribution
system.membus.trans_dist::CleanEvict              126                       # Transaction distribution
system.membus.trans_dist::ReadExReq           2975682                       # Transaction distribution
system.membus.trans_dist::ReadExResp          2975682                       # Transaction distribution
system.membus.trans_dist::ReadSharedReq           924                       # Transaction distribution
system.membus.pkt_count_system.l2.mem_side::system.mem_ctrls.port      8896277                       # Packet count per connected master and slave (bytes)
system.membus.pkt_count::total                8896277                       # Packet count per connected master and slave (bytes)
system.membus.pkt_size_system.l2.mem_side::system.mem_ctrls.port    189425440                       # Cumulative packet size per connected master and slave (bytes)
system.membus.pkt_size::total               189425440                       # Cumulative packet size per connected master and slave (bytes)
system.membus.snoops                                0                       # Total snoops (count)
system.membus.snoopTraffic                          0                       # Total snoop traffic (bytes)
system.membus.snoop_fanout::samples           2976606                       # Request fanout histogram
system.membus.snoop_fanout::mean                    0                       # Request fanout histogram
system.membus.snoop_fanout::stdev                   0                       # Request fanout histogram
system.membus.snoop_fanout::underflows              0      0.00%      0.00% # Request fanout histogram
system.membus.snoop_fanout::0                 2976606    100.00%    100.00% # Request fanout histogram
system.membus.snoop_fanout::1                       0      0.00%    100.00% # Request fanout histogram
system.membus.snoop_fanout::overflows               0      0.00%    100.00% # Request fanout histogram
system.membus.snoop_fanout::min_value               0                       # Request fanout histogram
system.membus.snoop_fanout::max_value               0                       # Request fanout histogram
system.membus.snoop_fanout::total             2976606                       # Request fanout histogram
system.membus.respLayer1.occupancy         9747722609                       # Layer occupancy (ticks)
system.membus.respLayer1.utilization              3.1                       # Layer utilization (%)
system.membus.reqLayer0.occupancy         14204377991                       # Layer occupancy (ticks)
system.membus.reqLayer0.utilization               4.5                       # Layer utilization (%)
system.tol2bus.pwrStateResidencyTicks::UNDEFINED 319151275223                       # Cumulative time (in ticks) in various power states
system.tol2bus.trans_dist::ReadResp              6770                       # Transaction distribution
system.tol2bus.trans_dist::WritebackDirty      5922414                       # Transaction distribution
system.tol2bus.trans_dist::CleanEvict            3960                       # Transaction distribution
system.tol2bus.trans_dist::ReadExReq          2978589                       # Transaction distribution
system.tol2bus.trans_dist::ReadExResp         2978588                       # Transaction distribution
system.tol2bus.trans_dist::ReadCleanReq           774                       # Transaction distribution
system.tol2bus.trans_dist::ReadSharedReq         5996                       # Transaction distribution
system.tol2bus.pkt_count_system.cpu.icache.mem_side::system.l2.cpu_side         1548                       # Packet count per connected master and slave (bytes)
system.tol2bus.pkt_count_system.cpu.dcache.mem_side::system.l2.cpu_side      8951705                       # Packet count per connected master and slave (bytes)
system.tol2bus.pkt_count::total               8953253                       # Packet count per connected master and slave (bytes)
system.tol2bus.pkt_size_system.cpu.icache.mem_side::system.l2.cpu_side        24768                       # Cumulative packet size per connected master and slave (bytes)
system.tol2bus.pkt_size_system.cpu.dcache.mem_side::system.l2.cpu_side    190849888                       # Cumulative packet size per connected master and slave (bytes)
system.tol2bus.pkt_size::total              190874656                       # Cumulative packet size per connected master and slave (bytes)
system.tol2bus.snoops                         2943838                       # Total snoops (count)
system.tol2bus.snoopTraffic                  94174048                       # Total snoop traffic (bytes)
system.tol2bus.snoop_fanout::samples          5929197                       # Request fanout histogram
system.tol2bus.snoop_fanout::mean            0.000625                       # Request fanout histogram
system.tol2bus.snoop_fanout::stdev           0.024993                       # Request fanout histogram
system.tol2bus.snoop_fanout::underflows             0      0.00%      0.00% # Request fanout histogram
system.tol2bus.snoop_fanout::0                5925491     99.94%     99.94% # Request fanout histogram
system.tol2bus.snoop_fanout::1                   3706      0.06%    100.00% # Request fanout histogram
system.tol2bus.snoop_fanout::2                      0      0.00%    100.00% # Request fanout histogram
system.tol2bus.snoop_fanout::overflows              0      0.00%    100.00% # Request fanout histogram
system.tol2bus.snoop_fanout::min_value              0                       # Request fanout histogram
system.tol2bus.snoop_fanout::max_value              1                       # Request fanout histogram
system.tol2bus.snoop_fanout::total            5929197                       # Request fanout histogram
system.tol2bus.reqLayer0.occupancy         5967895790                       # Layer occupancy (ticks)
system.tol2bus.reqLayer0.utilization              1.9                       # Layer utilization (%)
system.tol2bus.respLayer1.occupancy        3981437720                       # Layer occupancy (ticks)
system.tol2bus.respLayer1.utilization             1.2                       # Layer utilization (%)
system.tol2bus.respLayer0.occupancy           1033182                       # Layer occupancy (ticks)
system.tol2bus.respLayer0.utilization             0.0                       # Layer utilization (%)
system.voltage_domain.voltage                       1                       # Voltage in Volts
system.clk_domain.clock                          1000                       # Clock period in ticks
system.l2.pwrStateResidencyTicks::UNDEFINED 319151275223                       # Cumulative time (in ticks) in various power states
system.l2.demand_hits::.cpu.inst                   12                       # number of demand (read+write) hits
system.l2.demand_hits::.cpu.data                 8735                       # number of demand (read+write) hits
system.l2.demand_hits::total                     8747                       # number of demand (read+write) hits
system.l2.overall_hits::.cpu.inst                  12                       # number of overall hits
system.l2.overall_hits::.cpu.data                8735                       # number of overall hits
system.l2.overall_hits::total                    8747                       # number of overall hits
system.l2.demand_misses::.cpu.inst                762                       # number of demand (read+write) misses
system.l2.demand_misses::.cpu.data            2975850                       # number of demand (read+write) misses
system.l2.demand_misses::total                2976612                       # number of demand (read+write) misses
system.l2.overall_misses::.cpu.inst               762                       # number of overall misses
system.l2.overall_misses::.cpu.data           2975850                       # number of overall misses
system.l2.overall_misses::total               2976612                       # number of overall misses
system.l2.demand_miss_latency::.cpu.inst     63181575                       # number of demand (read+write) miss cycles
system.l2.demand_miss_latency::.cpu.data 250153288804                       # number of demand (read+write) miss cycles
system.l2.demand_miss_latency::total     250216470379                       # number of demand (read+write) miss cycles
system.l2.overall_miss_latency::.cpu.inst     63181575                       # number of overall miss cycles
system.l2.overall_miss_latency::.cpu.data 250153288804                       # number of overall miss cycles
system.l2.overall_miss_latency::total    250216470379                       # number of overall miss cycles
system.l2.demand_accesses::.cpu.inst              774                       # number of demand (read+write) accesses
system.l2.demand_accesses::.cpu.data          2984585                       # number of demand (read+write) accesses
system.l2.demand_accesses::total              2985359                       # number of demand (read+write) accesses
system.l2.overall_accesses::.cpu.inst             774                       # number of overall (read+write) accesses
system.l2.overall_accesses::.cpu.data         2984585                       # number of overall (read+write) accesses
system.l2.overall_accesses::total             2985359                       # number of overall (read+write) accesses
system.l2.demand_miss_rate::.cpu.inst        0.984496                       # miss rate for demand accesses
system.l2.demand_miss_rate::.cpu.data        0.997073                       # miss rate for demand accesses
system.l2.demand_miss_rate::total            0.997070                       # miss rate for demand accesses
system.l2.overall_miss_rate::.cpu.inst       0.984496                       # miss rate for overall accesses
system.l2.overall_miss_rate::.cpu.data       0.997073                       # miss rate for overall accesses
system.l2.overall_miss_rate::total           0.997070                       # miss rate for overall accesses
system.l2.demand_avg_miss_latency::.cpu.inst 82915.452756                       # average overall miss latency
system.l2.demand_avg_miss_latency::.cpu.data 84061.121630                       # average overall miss latency
system.l2.demand_avg_miss_latency::total 84060.828344                       # average overall miss latency
system.l2.overall_avg_miss_latency::.cpu.inst 82915.452756                       # average overall miss latency
system.l2.overall_avg_miss_latency::.cpu.data 84061.121630                       # average overall miss latency
system.l2.overall_avg_miss_latency::total 84060.828344                       # average overall miss latency
system.l2.blocked_cycles::no_mshrs                  0                       # number of cycles access was blocked
system.l2.blocked_cycles::no_targets                0                       # number of cycles access was blocked
system.l2.blocked::no_mshrs                         0                       # number of cycles access was blocked
system.l2.blocked::no_targets                       0                       # number of cycles access was blocked
system.l2.avg_blocked_cycles::no_mshrs            nan                       # average number of cycles each access was blocked
system.l2.avg_blocked_cycles::no_targets          nan                       # average number of cycles each access was blocked
system.l2.writebacks::.writebacks             2942939                       # number of writebacks
system.l2.writebacks::total                   2942939                       # number of writebacks
system.l2.demand_mshr_hits::.cpu.inst               1                       # number of demand (read+write) MSHR hits
system.l2.demand_mshr_hits::.cpu.data               4                       # number of demand (read+write) MSHR hits
system.l2.demand_mshr_hits::total                   5                       # number of demand (read+write) MSHR hits
system.l2.overall_mshr_hits::.cpu.inst              1                       # number of overall MSHR hits
system.l2.overall_mshr_hits::.cpu.data              4                       # number of overall MSHR hits
system.l2.overall_mshr_hits::total                  5                       # number of overall MSHR hits
system.l2.demand_mshr_misses::.cpu.inst           761                       # number of demand (read+write) MSHR misses
system.l2.demand_mshr_misses::.cpu.data       2975846                       # number of demand (read+write) MSHR misses
system.l2.demand_mshr_misses::total           2976607                       # number of demand (read+write) MSHR misses
system.l2.overall_mshr_misses::.cpu.inst          761                       # number of overall MSHR misses
system.l2.overall_mshr_misses::.cpu.data      2975846                       # number of overall MSHR misses
system.l2.overall_mshr_misses::total          2976607                       # number of overall MSHR misses
system.l2.demand_mshr_miss_latency::.cpu.inst     52736458                       # number of demand (read+write) MSHR miss cycles
system.l2.demand_mshr_miss_latency::.cpu.data 209717266343                       # number of demand (read+write) MSHR miss cycles
system.l2.demand_mshr_miss_latency::total 209770002801                       # number of demand (read+write) MSHR miss cycles
system.l2.overall_mshr_miss_latency::.cpu.inst     52736458                       # number of overall MSHR miss cycles
system.l2.overall_mshr_miss_latency::.cpu.data 209717266343                       # number of overall MSHR miss cycles
system.l2.overall_mshr_miss_latency::total 209770002801                       # number of overall MSHR miss cycles
system.l2.demand_mshr_miss_rate::.cpu.inst     0.983204                       # mshr miss rate for demand accesses
system.l2.demand_mshr_miss_rate::.cpu.data     0.997072                       # mshr miss rate for demand accesses
system.l2.demand_mshr_miss_rate::total       0.997068                       # mshr miss rate for demand accesses
system.l2.overall_mshr_miss_rate::.cpu.inst     0.983204                       # mshr miss rate for overall accesses
system.l2.overall_mshr_miss_rate::.cpu.data     0.997072                       # mshr miss rate for overall accesses
system.l2.overall_mshr_miss_rate::total      0.997068                       # mshr miss rate for overall accesses
system.l2.demand_avg_mshr_miss_latency::.cpu.inst 69298.893561                       # average overall mshr miss latency
system.l2.demand_avg_mshr_miss_latency::.cpu.data 70473.158336                       # average overall mshr miss latency
system.l2.demand_avg_mshr_miss_latency::total 70472.858124                       # average overall mshr miss latency
system.l2.overall_avg_mshr_miss_latency::.cpu.inst 69298.893561                       # average overall mshr miss latency
system.l2.overall_avg_mshr_miss_latency::.cpu.data 70473.158336                       # average overall mshr miss latency
system.l2.overall_avg_mshr_miss_latency::total 70472.858124                       # average overall mshr miss latency
system.l2.replacements                        2943838                       # number of replacements
system.l2.WritebackDirty_hits::.writebacks      2979475                       # number of WritebackDirty hits
system.l2.WritebackDirty_hits::total          2979475                       # number of WritebackDirty hits
system.l2.WritebackDirty_accesses::.writebacks      2979475                       # number of WritebackDirty accesses(hits+misses)
system.l2.WritebackDirty_accesses::total      2979475                       # number of WritebackDirty accesses(hits+misses)
system.l2.ReadExReq_hits::.cpu.data              2906                       # number of ReadExReq hits
system.l2.ReadExReq_hits::total                  2906                       # number of ReadExReq hits
system.l2.ReadExReq_misses::.cpu.data         2975683                       # number of ReadExReq misses
system.l2.ReadExReq_misses::total             2975683                       # number of ReadExReq misses
system.l2.ReadExReq_miss_latency::.cpu.data 250137931796                       # number of ReadExReq miss cycles
system.l2.ReadExReq_miss_latency::total  250137931796                       # number of ReadExReq miss cycles
system.l2.ReadExReq_accesses::.cpu.data       2978589                       # number of ReadExReq accesses(hits+misses)
system.l2.ReadExReq_accesses::total           2978589                       # number of ReadExReq accesses(hits+misses)
system.l2.ReadExReq_miss_rate::.cpu.data     0.999024                       # miss rate for ReadExReq accesses
system.l2.ReadExReq_miss_rate::total         0.999024                       # miss rate for ReadExReq accesses
system.l2.ReadExReq_avg_miss_latency::.cpu.data 84060.678438                       # average ReadExReq miss latency
system.l2.ReadExReq_avg_miss_latency::total 84060.678438                       # average ReadExReq miss latency
system.l2.ReadExReq_mshr_misses::.cpu.data      2975683                       # number of ReadExReq MSHR misses
system.l2.ReadExReq_mshr_misses::total        2975683                       # number of ReadExReq MSHR misses
system.l2.ReadExReq_mshr_miss_latency::.cpu.data 209704427731                       # number of ReadExReq MSHR miss cycles
system.l2.ReadExReq_mshr_miss_latency::total 209704427731                       # number of ReadExReq MSHR miss cycles
system.l2.ReadExReq_mshr_miss_rate::.cpu.data     0.999024                       # mshr miss rate for ReadExReq accesses
system.l2.ReadExReq_mshr_miss_rate::total     0.999024                       # mshr miss rate for ReadExReq accesses
system.l2.ReadExReq_avg_mshr_miss_latency::.cpu.data 70472.704159                       # average ReadExReq mshr miss latency
system.l2.ReadExReq_avg_mshr_miss_latency::total 70472.704159                       # average ReadExReq mshr miss latency
system.l2.ReadCleanReq_hits::.cpu.inst             12                       # number of ReadCleanReq hits
system.l2.ReadCleanReq_hits::total                 12                       # number of ReadCleanReq hits
system.l2.ReadCleanReq_misses::.cpu.inst          762                       # number of ReadCleanReq misses
system.l2.ReadCleanReq_misses::total              762                       # number of ReadCleanReq misses
system.l2.ReadCleanReq_miss_latency::.cpu.inst     63181575                       # number of ReadCleanReq miss cycles
system.l2.ReadCleanReq_miss_latency::total     63181575                       # number of ReadCleanReq miss cycles
system.l2.ReadCleanReq_accesses::.cpu.inst          774                       # number of ReadCleanReq accesses(hits+misses)
system.l2.ReadCleanReq_accesses::total            774                       # number of ReadCleanReq accesses(hits+misses)
system.l2.ReadCleanReq_miss_rate::.cpu.inst     0.984496                       # miss rate for ReadCleanReq accesses
system.l2.ReadCleanReq_miss_rate::total      0.984496                       # miss rate for ReadCleanReq accesses
system.l2.ReadCleanReq_avg_miss_latency::.cpu.inst 82915.452756                       # average ReadCleanReq miss latency
system.l2.ReadCleanReq_avg_miss_latency::total 82915.452756                       # average ReadCleanReq miss latency
system.l2.ReadCleanReq_mshr_hits::.cpu.inst            1                       # number of ReadCleanReq MSHR hits
system.l2.ReadCleanReq_mshr_hits::total             1                       # number of ReadCleanReq MSHR hits
system.l2.ReadCleanReq_mshr_misses::.cpu.inst          761                       # number of ReadCleanReq MSHR misses
system.l2.ReadCleanReq_mshr_misses::total          761                       # number of ReadCleanReq MSHR misses
system.l2.ReadCleanReq_mshr_miss_latency::.cpu.inst     52736458                       # number of ReadCleanReq MSHR miss cycles
system.l2.ReadCleanReq_mshr_miss_latency::total     52736458                       # number of ReadCleanReq MSHR miss cycles
system.l2.ReadCleanReq_mshr_miss_rate::.cpu.inst     0.983204                       # mshr miss rate for ReadCleanReq accesses
system.l2.ReadCleanReq_mshr_miss_rate::total     0.983204                       # mshr miss rate for ReadCleanReq accesses
system.l2.ReadCleanReq_avg_mshr_miss_latency::.cpu.inst 69298.893561                       # average ReadCleanReq mshr miss latency
system.l2.ReadCleanReq_avg_mshr_miss_latency::total 69298.893561                       # average ReadCleanReq mshr miss latency
system.l2.ReadSharedReq_hits::.cpu.data          5829                       # number of ReadSharedReq hits
system.l2.ReadSharedReq_hits::total              5829                       # number of ReadSharedReq hits
system.l2.ReadSharedReq_misses::.cpu.data          167                       # number of ReadSharedReq misses
system.l2.ReadSharedReq_misses::total             167                       # number of ReadSharedReq misses
system.l2.ReadSharedReq_miss_latency::.cpu.data     15357008                       # number of ReadSharedReq miss cycles
system.l2.ReadSharedReq_miss_latency::total     15357008                       # number of ReadSharedReq miss cycles
system.l2.ReadSharedReq_accesses::.cpu.data         5996                       # number of ReadSharedReq accesses(hits+misses)
system.l2.ReadSharedReq_accesses::total          5996                       # number of ReadSharedReq accesses(hits+misses)
system.l2.ReadSharedReq_miss_rate::.cpu.data     0.027852                       # miss rate for ReadSharedReq accesses
system.l2.ReadSharedReq_miss_rate::total     0.027852                       # miss rate for ReadSharedReq accesses
system.l2.ReadSharedReq_avg_miss_latency::.cpu.data 91958.131737                       # average ReadSharedReq miss latency
system.l2.ReadSharedReq_avg_miss_latency::total 91958.131737                       # average ReadSharedReq miss latency
system.l2.ReadSharedReq_mshr_hits::.cpu.data            4                       # number of ReadSharedReq MSHR hits
system.l2.ReadSharedReq_mshr_hits::total            4                       # number of ReadSharedReq MSHR hits
system.l2.ReadSharedReq_mshr_misses::.cpu.data          163                       # number of ReadSharedReq MSHR misses
system.l2.ReadSharedReq_mshr_misses::total          163                       # number of ReadSharedReq MSHR misses
system.l2.ReadSharedReq_mshr_miss_latency::.cpu.data     12838612                       # number of ReadSharedReq MSHR miss cycles
system.l2.ReadSharedReq_mshr_miss_latency::total     12838612                       # number of ReadSharedReq MSHR miss cycles
system.l2.ReadSharedReq_mshr_miss_rate::.cpu.data     0.027185                       # mshr miss rate for ReadSharedReq accesses
system.l2.ReadSharedReq_mshr_miss_rate::total     0.027185                       # mshr miss rate for ReadSharedReq accesses
system.l2.ReadSharedReq_avg_mshr_miss_latency::.cpu.data 78764.490798                       # average ReadSharedReq mshr miss latency
system.l2.ReadSharedReq_avg_mshr_miss_latency::total 78764.490798                       # average ReadSharedReq mshr miss latency
system.l2.tags.pwrStateResidencyTicks::UNDEFINED 319151275223                       # Cumulative time (in ticks) in various power states
system.l2.tags.tagsinuse                 32591.559698                       # Cycle average of tags in use
system.l2.tags.total_refs                     5964957                       # Total number of references to valid blocks.
system.l2.tags.sampled_refs                   2976606                       # Sample count of references to valid blocks.
system.l2.tags.avg_refs                      2.003946                       # Average number of references to valid blocks.
system.l2.tags.warmup_cycle                     80000                       # Cycle when the warmup percentage was hit.
system.l2.tags.occ_blocks::.cpu.inst         6.408659                       # Average occupied blocks per requestor
system.l2.tags.occ_blocks::.cpu.data     32585.151039                       # Average occupied blocks per requestor
system.l2.tags.occ_percent::.cpu.inst        0.000196                       # Average percentage of cache occupancy
system.l2.tags.occ_percent::.cpu.data        0.994420                       # Average percentage of cache occupancy
system.l2.tags.occ_percent::total            0.994615                       # Average percentage of cache occupancy
system.l2.tags.occ_task_id_blocks::1024         32768                       # Occupied blocks per task id
system.l2.tags.age_task_id_blocks_1024::0           92                       # Occupied blocks per task id
system.l2.tags.age_task_id_blocks_1024::1          840                       # Occupied blocks per task id
system.l2.tags.age_task_id_blocks_1024::2         8388                       # Occupied blocks per task id
system.l2.tags.age_task_id_blocks_1024::3        23446                       # Occupied blocks per task id
system.l2.tags.age_task_id_blocks_1024::4            2                       # Occupied blocks per task id
system.l2.tags.occ_task_id_percent::1024            1                       # Percentage of cache occupancy per task id
system.l2.tags.tag_accesses                  14906532                       # Number of tag accesses
system.l2.tags.data_accesses                 14906532                       # Number of data accesses
system.cpu_voltage_domain.voltage                   1                       # Voltage in Volts
system.mem_ctrls.pwrStateResidencyTicks::UNDEFINED 319151275223                       # Cumulative time (in ticks) in various power states
system.mem_ctrls.bytes_read::.cpu.inst          24352                       # Number of bytes read from this memory
system.mem_ctrls.bytes_read::.cpu.data       95227040                       # Number of bytes read from this memory
system.mem_ctrls.bytes_read::total           95251392                       # Number of bytes read from this memory
system.mem_ctrls.bytes_inst_read::.cpu.inst        24352                       # Number of instructions bytes read from this memory
system.mem_ctrls.bytes_inst_read::total         24352                       # Number of instructions bytes read from this memory
system.mem_ctrls.bytes_written::.writebacks     94174048                       # Number of bytes written to this memory
system.mem_ctrls.bytes_written::total        94174048                       # Number of bytes written to this memory
system.mem_ctrls.num_reads::.cpu.inst             761                       # Number of read requests responded to by this memory
system.mem_ctrls.num_reads::.cpu.data         2975845                       # Number of read requests responded to by this memory
system.mem_ctrls.num_reads::total             2976606                       # Number of read requests responded to by this memory
system.mem_ctrls.num_writes::.writebacks      2942939                       # Number of write requests responded to by this memory
system.mem_ctrls.num_writes::total            2942939                       # Number of write requests responded to by this memory
system.mem_ctrls.bw_read::.cpu.inst             76302                       # Total read bandwidth from this memory (bytes/s)
system.mem_ctrls.bw_read::.cpu.data         298375872                       # Total read bandwidth from this memory (bytes/s)
system.mem_ctrls.bw_read::total             298452174                       # Total read bandwidth from this memory (bytes/s)
system.mem_ctrls.bw_inst_read::.cpu.inst        76302                       # Instruction read bandwidth from this memory (bytes/s)
system.mem_ctrls.bw_inst_read::total            76302                       # Instruction read bandwidth from this memory (bytes/s)
system.mem_ctrls.bw_write::.writebacks      295076521                       # Write bandwidth from this memory (bytes/s)
system.mem_ctrls.bw_write::total            295076521                       # Write bandwidth from this memory (bytes/s)
system.mem_ctrls.bw_total::.writebacks      295076521                       # Total bandwidth to/from this memory (bytes/s)
system.mem_ctrls.bw_total::.cpu.inst            76302                       # Total bandwidth to/from this memory (bytes/s)
system.mem_ctrls.bw_total::.cpu.data        298375872                       # Total bandwidth to/from this memory (bytes/s)
system.mem_ctrls.bw_total::total            593528695                       # Total bandwidth to/from this memory (bytes/s)
system.mem_ctrls.avgPriority_.writebacks::samples   1471884.00                       # Average QoS priority value for accepted requests
system.mem_ctrls.avgPriority_.cpu.inst::samples       761.00                       # Average QoS priority value for accepted requests
system.mem_ctrls.avgPriority_.cpu.data::samples   2975845.00                       # Average QoS priority value for accepted requests
system.mem_ctrls.priorityMinLatency      0.000000018750                       # per QoS priority minimum request to response latency (s)
system.mem_ctrls.priorityMaxLatency      0.000969737846                       # per QoS priority maximum request to response latency (s)
system.mem_ctrls.numReadWriteTurnArounds        91808                       # Number of turnarounds from READ to WRITE
system.mem_ctrls.numWriteReadTurnArounds        91808                       # Number of turnarounds from WRITE to READ
system.mem_ctrls.numStayReadState             8883527                       # Number of times bus staying in READ state
system.mem_ctrls.numStayWriteState            1381062                       # Number of times bus staying in WRITE state
system.mem_ctrls.readReqs                     2976606                       # Number of read requests accepted
system.mem_ctrls.writeReqs                    2942939                       # Number of write requests accepted
system.mem_ctrls.readBursts                   2976606                       # Number of DRAM read bursts, including those serviced by the write queue
system.mem_ctrls.writeBursts                  2942939                       # Number of DRAM write bursts, including those merged in the write queue
system.mem_ctrls.servicedByWrQ                      0                       # Number of DRAM read bursts serviced by the write queue
system.mem_ctrls.mergedWrBursts               1471055                       # Number of DRAM write bursts merged with an existing one
system.mem_ctrls.neitherReadNorWriteReqs            0                       # Number of requests that are neither read nor write
system.mem_ctrls.perBankRdBursts::0            186081                       # Per bank write bursts
system.mem_ctrls.perBankRdBursts::1            185912                       # Per bank write bursts
system.mem_ctrls.perBankRdBursts::2            185964                       # Per bank write bursts
system.mem_ctrls.perBankRdBursts::3            185998                       # Per bank write bursts
system.mem_ctrls.perBankRdBursts::4            186179                       # Per bank write bursts
system.mem_ctrls.perBankRdBursts::5            186139                       # Per bank write bursts
system.mem_ctrls.perBankRdBursts::6            186119                       # Per bank write bursts
system.mem_ctrls.perBankRdBursts::7            186147                       # Per bank write bursts
system.mem_ctrls.perBankRdBursts::8            186258                       # Per bank write bursts
system.mem_ctrls.perBankRdBursts::9            186131                       # Per bank write bursts
system.mem_ctrls.perBankRdBursts::10           186086                       # Per bank write bursts
system.mem_ctrls.perBankRdBursts::11           185894                       # Per bank write bursts
system.mem_ctrls.perBankRdBursts::12           185963                       # Per bank write bursts
system.mem_ctrls.perBankRdBursts::13           185889                       # Per bank write bursts
system.mem_ctrls.perBankRdBursts::14           185896                       # Per bank write bursts
system.mem_ctrls.perBankRdBursts::15           185950                       # Per bank write bursts
system.mem_ctrls.perBankWrBursts::0             92139                       # Per bank write bursts
system.mem_ctrls.perBankWrBursts::1             92110                       # Per bank write bursts
system.mem_ctrls.perBankWrBursts::2             91919                       # Per bank write bursts
system.mem_ctrls.perBankWrBursts::3             91976                       # Per bank write bursts
system.mem_ctrls.perBankWrBursts::4             92036                       # Per bank write bursts
system.mem_ctrls.perBankWrBursts::5             92033                       # Per bank write bursts
system.mem_ctrls.perBankWrBursts::6             92032                       # Per bank write bursts
system.mem_ctrls.perBankWrBursts::7             92033                       # Per bank write bursts
system.mem_ctrls.perBankWrBursts::8             92046                       # Per bank write bursts
system.mem_ctrls.perBankWrBursts::9             92034                       # Per bank write bursts
system.mem_ctrls.perBankWrBursts::10            91973                       # Per bank write bursts
system.mem_ctrls.perBankWrBursts::11            91904                       # Per bank write bursts
system.mem_ctrls.perBankWrBursts::12            91906                       # Per bank write bursts
system.mem_ctrls.perBankWrBursts::13            91905                       # Per bank write bursts
system.mem_ctrls.perBankWrBursts::14            91904                       # Per bank write bursts
system.mem_ctrls.perBankWrBursts::15            91908                       # Per bank write bursts
system.mem_ctrls.avgRdQLen                       1.00                       # Average read queue length when enqueuing
system.mem_ctrls.avgWrQLen                      25.51                       # Average write queue length when enqueuing
system.mem_ctrls.totQLat                  20973983891                       # Total ticks spent queuing
system.mem_ctrls.totBusLat                14883030000                       # Total ticks spent in databus transfers
system.mem_ctrls.totMemAccLat             76785346391                       # Total ticks spent from burst creation until serviced by the DRAM
system.mem_ctrls.avgQLat                      7046.27                       # Average queueing delay per DRAM burst
system.mem_ctrls.avgBusLat                    5000.00                       # Average bus latency per DRAM burst
system.mem_ctrls.avgMemAccLat                25796.27                       # Average memory access latency per DRAM burst
system.mem_ctrls.numRdRetry                         0                       # Number of times read queue was full causing retry
system.mem_ctrls.numWrRetry                         0                       # Number of times write queue was full causing retry
system.mem_ctrls.readRowHits                  2743245                       # Number of row buffer hits during reads
system.mem_ctrls.writeRowHits                 1366384                       # Number of row buffer hits during writes
system.mem_ctrls.readRowHitRate                 92.16                       # Row buffer hit rate for reads
system.mem_ctrls.writeRowHitRate                92.83                       # Row buffer hit rate for writes
system.mem_ctrls.readPktSize::0                     0                       # Read request sizes (log2)
system.mem_ctrls.readPktSize::1                     0                       # Read request sizes (log2)
system.mem_ctrls.readPktSize::2                     0                       # Read request sizes (log2)
system.mem_ctrls.readPktSize::3                     0                       # Read request sizes (log2)
system.mem_ctrls.readPktSize::4                     0                       # Read request sizes (log2)
system.mem_ctrls.readPktSize::5               2976606                       # Read request sizes (log2)
system.mem_ctrls.readPktSize::6                     0                       # Read request sizes (log2)
system.mem_ctrls.writePktSize::0                    0                       # Write request sizes (log2)
system.mem_ctrls.writePktSize::1                    0                       # Write request sizes (log2)
system.mem_ctrls.writePktSize::2                    0                       # Write request sizes (log2)
system.mem_ctrls.writePktSize::3                    0                       # Write request sizes (log2)
system.mem_ctrls.writePktSize::4                    0                       # Write request sizes (log2)
system.mem_ctrls.writePktSize::5              2942939                       # Write request sizes (log2)
system.mem_ctrls.writePktSize::6                    0                       # Write request sizes (log2)
system.mem_ctrls.rdQLenPdf::0                 2976447                       # What read queue length does an incoming req see
system.mem_ctrls.rdQLenPdf::1                     141                       # What read queue length does an incoming req see
system.mem_ctrls.rdQLenPdf::2                      16                       # What read queue length does an incoming req see
system.mem_ctrls.rdQLenPdf::3                       2                       # What read queue length does an incoming req see
system.mem_ctrls.rdQLenPdf::4                       0                       # What read queue length does an incoming req see
system.mem_ctrls.rdQLenPdf::5                       0                       # What read queue length does an incoming req see
system.mem_ctrls.rdQLenPdf::6                       0                       # What read queue length does an incoming req see
system.mem_ctrls.rdQLenPdf::7                       0                       # What read queue length does an incoming req see
system.mem_ctrls.rdQLenPdf::8                       0                       # What read queue length does an incoming req see
system.mem_ctrls.rdQLenPdf::9                       0                       # What read queue length does an incoming req see
system.mem_ctrls.rdQLenPdf::10                      0                       # What read queue length does an incoming req see
system.mem_ctrls.rdQLenPdf::11                      0                       # What read queue length does an incoming req see
system.mem_ctrls.rdQLenPdf::12                      0                       # What read queue length does an incoming req see
system.mem_ctrls.rdQLenPdf::13                      0                       # What read queue length does an incoming req see
system.mem_ctrls.rdQLenPdf::14                      0                       # What read queue length does an incoming req see
system.mem_ctrls.rdQLenPdf::15                      0                       # What read queue length does an incoming req see
system.mem_ctrls.rdQLenPdf::16                      0                       # What read queue length does an incoming req see
system.mem_ctrls.rdQLenPdf::17                      0                       # What read queue length does an incoming req see
system.mem_ctrls.rdQLenPdf::18                      0                       # What read queue length does an incoming req see
system.mem_ctrls.rdQLenPdf::19                      0                       # What read queue length does an incoming req see
system.mem_ctrls.rdQLenPdf::20                      0                       # What read queue length does an incoming req see
system.mem_ctrls.rdQLenPdf::21                      0                       # What read queue length does an incoming req see
system.mem_ctrls.rdQLenPdf::22                      0                       # What read queue length does an incoming req see
system.mem_ctrls.rdQLenPdf::23                      0                       # What read queue length does an incoming req see
system.mem_ctrls.rdQLenPdf::24                      0                       # What read queue length does an incoming req see
system.mem_ctrls.rdQLenPdf::25                      0                       # What read queue length does an incoming req see
system.mem_ctrls.rdQLenPdf::26                      0                       # What read queue length does an incoming req see
system.mem_ctrls.rdQLenPdf::27                      0                       # What read queue length does an incoming req see
system.mem_ctrls.rdQLenPdf::28                      0                       # What read queue length does an incoming req see
system.mem_ctrls.rdQLenPdf::29                      0                       # What read queue length does an incoming req see
system.mem_ctrls.rdQLenPdf::30                      0                       # What read queue length does an incoming req see
system.mem_ctrls.rdQLenPdf::31                      0                       # What read queue length does an incoming req see
system.mem_ctrls.wrQLenPdf::0                       1                       # What write queue length does an incoming req see
system.mem_ctrls.wrQLenPdf::1                       1                       # What write queue length does an incoming req see
system.mem_ctrls.wrQLenPdf::2                       1                       # What write queue length does an incoming req see
system.mem_ctrls.wrQLenPdf::3                       1                       # What write queue length does an incoming req see
system.mem_ctrls.wrQLenPdf::4                       1                       # What write queue length does an incoming req see
system.mem_ctrls.wrQLenPdf::5                       1                       # What write queue length does an incoming req see
system.mem_ctrls.wrQLenPdf::6                       1                       # What write queue length does an incoming req see
system.mem_ctrls.wrQLenPdf::7                       1                       # What write queue length does an incoming req see
system.mem_ctrls.wrQLenPdf::8                       1                       # What write queue length does an incoming req see
system.mem_ctrls.wrQLenPdf::9                       1                       # What write queue length does an incoming req see
system.mem_ctrls.wrQLenPdf::10                      1                       # What write queue length does an incoming req see
system.mem_ctrls.wrQLenPdf::11                      1                       # What write queue length does an incoming req see
system.mem_ctrls.wrQLenPdf::12                      1                       # What write queue length does an incoming req see
system.mem_ctrls.wrQLenPdf::13                      1                       # What write queue length does an incoming req see
system.mem_ctrls.wrQLenPdf::14                      1                       # What write queue length does an incoming req see
system.mem_ctrls.wrQLenPdf::15                    634                       # What write queue length does an incoming req see
system.mem_ctrls.wrQLenPdf::16                   2298                       # What write queue length does an incoming req see
system.mem_ctrls.wrQLenPdf::17                  91809                       # What write queue length does an incoming req see
system.mem_ctrls.wrQLenPdf::18                  91809                       # What write queue length does an incoming req see
system.mem_ctrls.wrQLenPdf::19                  91809                       # What write queue length does an incoming req see
system.mem_ctrls.wrQLenPdf::20                  91809                       # What write queue length does an incoming req see
system.mem_ctrls.wrQLenPdf::21                  91809                       # What write queue length does an incoming req see
system.mem_ctrls.wrQLenPdf::22                  91809                       # What write queue length does an incoming req see
system.mem_ctrls.wrQLenPdf::23                  91809                       # What write queue length does an incoming req see
system.mem_ctrls.wrQLenPdf::24                  91809                       # What write queue length does an incoming req see
system.mem_ctrls.wrQLenPdf::25                  91809                       # What write queue length does an incoming req see
system.mem_ctrls.wrQLenPdf::26                  91808                       # What write queue length does an incoming req see
system.mem_ctrls.wrQLenPdf::27                  91808                       # What write queue length does an incoming req see
system.mem_ctrls.wrQLenPdf::28                  91808                       # What write queue length does an incoming req see
system.mem_ctrls.wrQLenPdf::29                  91808                       # What write queue length does an incoming req see
system.mem_ctrls.wrQLenPdf::30                  91808                       # What write queue length does an incoming req see
system.mem_ctrls.wrQLenPdf::31                  91808                       # What write queue length does an incoming req see
system.mem_ctrls.wrQLenPdf::32                  91808                       # What write queue length does an incoming req see
system.mem_ctrls.wrQLenPdf::33                      0                       # What write queue length does an incoming req see
system.mem_ctrls.wrQLenPdf::34                      0                       # What write queue length does an incoming req see
system.mem_ctrls.wrQLenPdf::35                      0                       # What write queue length does an incoming req see
system.mem_ctrls.wrQLenPdf::36                      0                       # What write queue length does an incoming req see
system.mem_ctrls.wrQLenPdf::37                      0                       # What write queue length does an incoming req see
system.mem_ctrls.wrQLenPdf::38                      0                       # What write queue length does an incoming req see
system.mem_ctrls.wrQLenPdf::39                      0                       # What write queue length does an incoming req see
system.mem_ctrls.wrQLenPdf::40                      0                       # What write queue length does an incoming req see
system.mem_ctrls.wrQLenPdf::41                      0                       # What write queue length does an incoming req see
system.mem_ctrls.wrQLenPdf::42                      0                       # What write queue length does an incoming req see
system.mem_ctrls.wrQLenPdf::43                      0                       # What write queue length does an incoming req see
system.mem_ctrls.wrQLenPdf::44                      0                       # What write queue length does an incoming req see
system.mem_ctrls.wrQLenPdf::45                      0                       # What write queue length does an incoming req see
system.mem_ctrls.wrQLenPdf::46                      0                       # What write queue length does an incoming req see
system.mem_ctrls.wrQLenPdf::47                      0                       # What write queue length does an incoming req see
system.mem_ctrls.wrQLenPdf::48                      0                       # What write queue length does an incoming req see
system.mem_ctrls.wrQLenPdf::49                      0                       # What write queue length does an incoming req see
system.mem_ctrls.wrQLenPdf::50                      0                       # What write queue length does an incoming req see
system.mem_ctrls.wrQLenPdf::51                      0                       # What write queue length does an incoming req see
system.mem_ctrls.wrQLenPdf::52                      0                       # What write queue length does an incoming req see
system.mem_ctrls.wrQLenPdf::53                      0                       # What write queue length does an incoming req see
system.mem_ctrls.wrQLenPdf::54                      0                       # What write queue length does an incoming req see
system.mem_ctrls.wrQLenPdf::55                      0                       # What write queue length does an incoming req see
system.mem_ctrls.wrQLenPdf::56                      0                       # What write queue length does an incoming req see
system.mem_ctrls.wrQLenPdf::57                      0                       # What write queue length does an incoming req see
system.mem_ctrls.wrQLenPdf::58                      0                       # What write queue length does an incoming req see
system.mem_ctrls.wrQLenPdf::59                      0                       # What write queue length does an incoming req see
system.mem_ctrls.wrQLenPdf::60                      0                       # What write queue length does an incoming req see
system.mem_ctrls.wrQLenPdf::61                      0                       # What write queue length does an incoming req see
system.mem_ctrls.wrQLenPdf::62                      0                       # What write queue length does an incoming req see
system.mem_ctrls.wrQLenPdf::63                      0                       # What write queue length does an incoming req see
system.mem_ctrls.bytesPerActivate::samples       338834                       # Bytes accessed per row activation
system.mem_ctrls.bytesPerActivate::mean    840.238701                       # Bytes accessed per row activation
system.mem_ctrls.bytesPerActivate::gmean   720.690410                       # Bytes accessed per row activation
system.mem_ctrls.bytesPerActivate::stdev   307.153971                       # Bytes accessed per row activation
system.mem_ctrls.bytesPerActivate::0-127        14630      4.32%      4.32% # Bytes accessed per row activation
system.mem_ctrls.bytesPerActivate::128-255        15294      4.51%      8.83% # Bytes accessed per row activation
system.mem_ctrls.bytesPerActivate::256-383        13268      3.92%     12.75% # Bytes accessed per row activation
system.mem_ctrls.bytesPerActivate::384-511        15233      4.50%     17.24% # Bytes accessed per row activation
system.mem_ctrls.bytesPerActivate::512-639        14665      4.33%     21.57% # Bytes accessed per row activation
system.mem_ctrls.bytesPerActivate::640-767        14164      4.18%     25.75% # Bytes accessed per row activation
system.mem_ctrls.bytesPerActivate::768-895        13151      3.88%     29.63% # Bytes accessed per row activation
system.mem_ctrls.bytesPerActivate::896-1023        14628      4.32%     33.95% # Bytes accessed per row activation
system.mem_ctrls.bytesPerActivate::1024-1151       223801     66.05%    100.00% # Bytes accessed per row activation
system.mem_ctrls.bytesPerActivate::total       338834                       # Bytes accessed per row activation
system.mem_ctrls.rdPerTurnAround::samples        91808                       # Reads before turning the bus around for writes
system.mem_ctrls.rdPerTurnAround::mean      32.421870                       # Reads before turning the bus around for writes
system.mem_ctrls.rdPerTurnAround::gmean     32.059041                       # Reads before turning the bus around for writes
system.mem_ctrls.rdPerTurnAround::stdev     96.448495                       # Reads before turning the bus around for writes
system.mem_ctrls.rdPerTurnAround::0-1023        91806    100.00%    100.00% # Reads before turning the bus around for writes
system.mem_ctrls.rdPerTurnAround::4096-5119            1      0.00%    100.00% # Reads before turning the bus around for writes
system.mem_ctrls.rdPerTurnAround::28672-29695            1      0.00%    100.00% # Reads before turning the bus around for writes
system.mem_ctrls.rdPerTurnAround::total         91808                       # Reads before turning the bus around for writes
system.mem_ctrls.wrPerTurnAround::samples        91808                       # Writes before turning the bus around for reads
system.mem_ctrls.wrPerTurnAround::mean      16.031914                       # Writes before turning the bus around for reads
system.mem_ctrls.wrPerTurnAround::gmean     16.030588                       # Writes before turning the bus around for reads
system.mem_ctrls.wrPerTurnAround::stdev      0.212829                       # Writes before turning the bus around for reads
system.mem_ctrls.wrPerTurnAround::16            89525     97.51%     97.51% # Writes before turning the bus around for reads
system.mem_ctrls.wrPerTurnAround::17             1650      1.80%     99.31% # Writes before turning the bus around for reads
system.mem_ctrls.wrPerTurnAround::18              619      0.67%     99.98% # Writes before turning the bus around for reads
system.mem_ctrls.wrPerTurnAround::19               14      0.02%    100.00% # Writes before turning the bus around for reads
[...]
system.cpu.icache.tags.occ_blocks::.cpu.inst   773.890103                       # Average occupied blocks per requestor
system.cpu.icache.tags.occ_percent::.cpu.inst     0.094469                       # Average percentage of cache occupancy
system.cpu.icache.tags.occ_percent::total     0.094469                       # Average percentage of cache occupancy
system.cpu.icache.tags.occ_task_id_blocks::1024          774                       # Occupied blocks per task id
system.cpu.icache.tags.age_task_id_blocks_1024::4          774                       # Occupied blocks per task id
system.cpu.icache.tags.occ_task_id_percent::1024     0.094482                       # Percentage of cache occupancy per task id
system.cpu.icache.tags.tag_accesses          19063234                       # Number of tag accesses
system.cpu.icache.tags.data_accesses         19063234                       # Number of data accesses
system.cpu.dtb.walker.pwrStateResidencyTicks::UNDEFINED 319151275223                       # Cumulative time (in ticks) in various power states
system.cpu.dtb.stage2_mmu.stage2_tlb.walker.pwrStateResidencyTicks::UNDEFINED 319151275223                       # Cumulative time (in ticks) in various power states
system.cpu.dcache.pwrStateResidencyTicks::UNDEFINED 319151275223                       # Cumulative time (in ticks) in various power states
system.cpu.dcache.demand_hits::.cpu.data     42843534                       # number of demand (read+write) hits
system.cpu.dcache.demand_hits::total         42843534                       # number of demand (read+write) hits
system.cpu.dcache.overall_hits::.cpu.data     42843563                       # number of overall hits
system.cpu.dcache.overall_hits::total        42843563                       # number of overall hits
system.cpu.dcache.demand_misses::.cpu.data      5963113                       # number of demand (read+write) misses
system.cpu.dcache.demand_misses::total        5963113                       # number of demand (read+write) misses
system.cpu.dcache.overall_misses::.cpu.data      5963136                       # number of overall misses
system.cpu.dcache.overall_misses::total       5963136                       # number of overall misses
system.cpu.dcache.demand_miss_latency::.cpu.data 497492224468                       # number of demand (read+write) miss cycles
system.cpu.dcache.demand_miss_latency::total 497492224468                       # number of demand (read+write) miss cycles
system.cpu.dcache.overall_miss_latency::.cpu.data 497492224468                       # number of overall miss cycles
system.cpu.dcache.overall_miss_latency::total 497492224468                       # number of overall miss cycles
system.cpu.dcache.demand_accesses::.cpu.data     48806647                       # number of demand (read+write) accesses
system.cpu.dcache.demand_accesses::total     48806647                       # number of demand (read+write) accesses
system.cpu.dcache.overall_accesses::.cpu.data     48806699                       # number of overall (read+write) accesses
system.cpu.dcache.overall_accesses::total     48806699                       # number of overall (read+write) accesses
system.cpu.dcache.demand_miss_rate::.cpu.data     0.122178                       # miss rate for demand accesses
system.cpu.dcache.demand_miss_rate::total     0.122178                       # miss rate for demand accesses
system.cpu.dcache.overall_miss_rate::.cpu.data     0.122179                       # miss rate for overall accesses
system.cpu.dcache.overall_miss_rate::total     0.122179                       # miss rate for overall accesses
system.cpu.dcache.demand_avg_miss_latency::.cpu.data 83428.273868                       # average overall miss latency
system.cpu.dcache.demand_avg_miss_latency::total 83428.273868                       # average overall miss latency
system.cpu.dcache.overall_avg_miss_latency::.cpu.data 83427.952082                       # average overall miss latency
system.cpu.dcache.overall_avg_miss_latency::total 83427.952082                       # average overall miss latency
system.cpu.dcache.blocked_cycles::no_mshrs            0                       # number of cycles access was blocked
system.cpu.dcache.blocked_cycles::no_targets            0                       # number of cycles access was blocked
system.cpu.dcache.blocked::no_mshrs                 0                       # number of cycles access was blocked
system.cpu.dcache.blocked::no_targets               0                       # number of cycles access was blocked
system.cpu.dcache.avg_blocked_cycles::no_mshrs          nan                       # average number of cycles each access was blocked
system.cpu.dcache.avg_blocked_cycles::no_targets          nan                       # average number of cycles each access was blocked
system.cpu.dcache.writebacks::.writebacks      2979475                       # number of writebacks
system.cpu.dcache.writebacks::total           2979475                       # number of writebacks
system.cpu.dcache.demand_mshr_hits::.cpu.data      2978552                       # number of demand (read+write) MSHR hits
system.cpu.dcache.demand_mshr_hits::total      2978552                       # number of demand (read+write) MSHR hits
system.cpu.dcache.overall_mshr_hits::.cpu.data      2978552                       # number of overall MSHR hits
system.cpu.dcache.overall_mshr_hits::total      2978552                       # number of overall MSHR hits
system.cpu.dcache.demand_mshr_misses::.cpu.data      2984561                       # number of demand (read+write) MSHR misses
system.cpu.dcache.demand_mshr_misses::total      2984561                       # number of demand (read+write) MSHR misses
system.cpu.dcache.overall_mshr_misses::.cpu.data      2984584                       # number of overall MSHR misses
system.cpu.dcache.overall_mshr_misses::total      2984584                       # number of overall MSHR misses
system.cpu.dcache.demand_mshr_miss_latency::.cpu.data 256384950411                       # number of demand (read+write) MSHR miss cycles
system.cpu.dcache.demand_mshr_miss_latency::total 256384950411                       # number of demand (read+write) MSHR miss cycles
system.cpu.dcache.overall_mshr_miss_latency::.cpu.data 256387276240                       # number of overall MSHR miss cycles
system.cpu.dcache.overall_mshr_miss_latency::total 256387276240                       # number of overall MSHR miss cycles
system.cpu.dcache.demand_mshr_miss_rate::.cpu.data     0.061151                       # mshr miss rate for demand accesses
system.cpu.dcache.demand_mshr_miss_rate::total     0.061151                       # mshr miss rate for demand accesses
system.cpu.dcache.overall_mshr_miss_rate::.cpu.data     0.061151                       # mshr miss rate for overall accesses
system.cpu.dcache.overall_mshr_miss_rate::total     0.061151                       # mshr miss rate for overall accesses
system.cpu.dcache.demand_avg_mshr_miss_latency::.cpu.data 85903.739415                       # average overall mshr miss latency
system.cpu.dcache.demand_avg_mshr_miss_latency::total 85903.739415                       # average overall mshr miss latency
system.cpu.dcache.overall_avg_mshr_miss_latency::.cpu.data 85903.856698                       # average overall mshr miss latency
system.cpu.dcache.overall_avg_mshr_miss_latency::total 85903.856698                       # average overall mshr miss latency
system.cpu.dcache.replacements                2982536                       # number of replacements
system.cpu.dcache.ReadReq_hits::.cpu.data     35705054                       # number of ReadReq hits
system.cpu.dcache.ReadReq_hits::total        35705054                       # number of ReadReq hits
system.cpu.dcache.ReadReq_misses::.cpu.data         5979                       # number of ReadReq misses
system.cpu.dcache.ReadReq_misses::total          5979                       # number of ReadReq misses
system.cpu.dcache.ReadReq_miss_latency::.cpu.data    190757331                       # number of ReadReq miss cycles
system.cpu.dcache.ReadReq_miss_latency::total    190757331                       # number of ReadReq miss cycles
system.cpu.dcache.ReadReq_accesses::.cpu.data     35711033                       # number of ReadReq accesses(hits+misses)
system.cpu.dcache.ReadReq_accesses::total     35711033                       # number of ReadReq accesses(hits+misses)
system.cpu.dcache.ReadReq_miss_rate::.cpu.data     0.000167                       # miss rate for ReadReq accesses
system.cpu.dcache.ReadReq_miss_rate::total     0.000167                       # miss rate for ReadReq accesses
system.cpu.dcache.ReadReq_avg_miss_latency::.cpu.data 31904.554441                       # average ReadReq miss latency
system.cpu.dcache.ReadReq_avg_miss_latency::total 31904.554441                       # average ReadReq miss latency
system.cpu.dcache.ReadReq_mshr_hits::.cpu.data            7                       # number of ReadReq MSHR hits
system.cpu.dcache.ReadReq_mshr_hits::total            7                       # number of ReadReq MSHR hits
system.cpu.dcache.ReadReq_mshr_misses::.cpu.data         5972                       # number of ReadReq MSHR misses
system.cpu.dcache.ReadReq_mshr_misses::total         5972                       # number of ReadReq MSHR misses
system.cpu.dcache.ReadReq_mshr_miss_latency::.cpu.data    182195052                       # number of ReadReq MSHR miss cycles
system.cpu.dcache.ReadReq_mshr_miss_latency::total    182195052                       # number of ReadReq MSHR miss cycles
system.cpu.dcache.ReadReq_mshr_miss_rate::.cpu.data     0.000167                       # mshr miss rate for ReadReq accesses
system.cpu.dcache.ReadReq_mshr_miss_rate::total     0.000167                       # mshr miss rate for ReadReq accesses
system.cpu.dcache.ReadReq_avg_mshr_miss_latency::.cpu.data 30508.213664                       # average ReadReq mshr miss latency
system.cpu.dcache.ReadReq_avg_mshr_miss_latency::total 30508.213664                       # average ReadReq mshr miss latency
system.cpu.dcache.WriteReq_hits::.cpu.data      7138480                       # number of WriteReq hits
system.cpu.dcache.WriteReq_hits::total        7138480                       # number of WriteReq hits
system.cpu.dcache.WriteReq_misses::.cpu.data      5957134                       # number of WriteReq misses
system.cpu.dcache.WriteReq_misses::total      5957134                       # number of WriteReq misses
system.cpu.dcache.WriteReq_miss_latency::.cpu.data 497301467137                       # number of WriteReq miss cycles
system.cpu.dcache.WriteReq_miss_latency::total 497301467137                       # number of WriteReq miss cycles
system.cpu.dcache.WriteReq_accesses::.cpu.data     13095614                       # number of WriteReq accesses(hits+misses)
system.cpu.dcache.WriteReq_accesses::total     13095614                       # number of WriteReq accesses(hits+misses)
system.cpu.dcache.WriteReq_miss_rate::.cpu.data     0.454895                       # miss rate for WriteReq accesses
system.cpu.dcache.WriteReq_miss_rate::total     0.454895                       # miss rate for WriteReq accesses
system.cpu.dcache.WriteReq_avg_miss_latency::.cpu.data 83479.986708                       # average WriteReq miss latency
system.cpu.dcache.WriteReq_avg_miss_latency::total 83479.986708                       # average WriteReq miss latency
system.cpu.dcache.WriteReq_mshr_hits::.cpu.data      2978545                       # number of WriteReq MSHR hits
system.cpu.dcache.WriteReq_mshr_hits::total      2978545                       # number of WriteReq MSHR hits
system.cpu.dcache.WriteReq_mshr_misses::.cpu.data      2978589                       # number of WriteReq MSHR misses
system.cpu.dcache.WriteReq_mshr_misses::total      2978589                       # number of WriteReq MSHR misses
system.cpu.dcache.WriteReq_mshr_miss_latency::.cpu.data 256202755359                       # number of WriteReq MSHR miss cycles
system.cpu.dcache.WriteReq_mshr_miss_latency::total 256202755359                       # number of WriteReq MSHR miss cycles
system.cpu.dcache.WriteReq_mshr_miss_rate::.cpu.data     0.227449                       # mshr miss rate for WriteReq accesses
system.cpu.dcache.WriteReq_mshr_miss_rate::total     0.227449                       # mshr miss rate for WriteReq accesses
system.cpu.dcache.WriteReq_avg_mshr_miss_latency::.cpu.data 86014.806124                       # average WriteReq mshr miss latency
system.cpu.dcache.WriteReq_avg_mshr_miss_latency::total 86014.806124                       # average WriteReq mshr miss latency
system.cpu.dcache.SoftPFReq_hits::.cpu.data           29                       # number of SoftPFReq hits
system.cpu.dcache.SoftPFReq_hits::total            29                       # number of SoftPFReq hits
system.cpu.dcache.SoftPFReq_misses::.cpu.data           23                       # number of SoftPFReq misses
system.cpu.dcache.SoftPFReq_misses::total           23                       # number of SoftPFReq misses
system.cpu.dcache.SoftPFReq_accesses::.cpu.data           52                       # number of SoftPFReq accesses(hits+misses)
system.cpu.dcache.SoftPFReq_accesses::total           52                       # number of SoftPFReq accesses(hits+misses)
system.cpu.dcache.SoftPFReq_miss_rate::.cpu.data     0.442308                       # miss rate for SoftPFReq accesses
system.cpu.dcache.SoftPFReq_miss_rate::total     0.442308                       # miss rate for SoftPFReq accesses
system.cpu.dcache.SoftPFReq_mshr_misses::.cpu.data           23                       # number of SoftPFReq MSHR misses
system.cpu.dcache.SoftPFReq_mshr_misses::total           23                       # number of SoftPFReq MSHR misses
system.cpu.dcache.SoftPFReq_mshr_miss_latency::.cpu.data      2325829                       # number of SoftPFReq MSHR miss cycles
system.cpu.dcache.SoftPFReq_mshr_miss_latency::total      2325829                       # number of SoftPFReq MSHR miss cycles
system.cpu.dcache.SoftPFReq_mshr_miss_rate::.cpu.data     0.442308                       # mshr miss rate for SoftPFReq accesses
system.cpu.dcache.SoftPFReq_mshr_miss_rate::total     0.442308                       # mshr miss rate for SoftPFReq accesses
system.cpu.dcache.SoftPFReq_avg_mshr_miss_latency::.cpu.data       101123                       # average SoftPFReq mshr miss latency
system.cpu.dcache.SoftPFReq_avg_mshr_miss_latency::total       101123                       # average SoftPFReq mshr miss latency
system.cpu.dcache.LoadLockedReq_hits::.cpu.data           13                       # number of LoadLockedReq hits
system.cpu.dcache.LoadLockedReq_hits::total           13                       # number of LoadLockedReq hits
system.cpu.dcache.LoadLockedReq_misses::.cpu.data            1                       # number of LoadLockedReq misses
system.cpu.dcache.LoadLockedReq_misses::total            1                       # number of LoadLockedReq misses
system.cpu.dcache.LoadLockedReq_miss_latency::.cpu.data        94714                       # number of LoadLockedReq miss cycles
system.cpu.dcache.LoadLockedReq_miss_latency::total        94714                       # number of LoadLockedReq miss cycles
system.cpu.dcache.LoadLockedReq_accesses::.cpu.data           14                       # number of LoadLockedReq accesses(hits+misses)
system.cpu.dcache.LoadLockedReq_accesses::total           14                       # number of LoadLockedReq accesses(hits+misses)
system.cpu.dcache.LoadLockedReq_miss_rate::.cpu.data     0.071429                       # miss rate for LoadLockedReq accesses
system.cpu.dcache.LoadLockedReq_miss_rate::total     0.071429                       # miss rate for LoadLockedReq accesses
system.cpu.dcache.LoadLockedReq_avg_miss_latency::.cpu.data        94714                       # average LoadLockedReq miss latency
system.cpu.dcache.LoadLockedReq_avg_miss_latency::total        94714                       # average LoadLockedReq miss latency
system.cpu.dcache.LoadLockedReq_mshr_misses::.cpu.data            1                       # number of LoadLockedReq MSHR misses
system.cpu.dcache.LoadLockedReq_mshr_misses::total            1                       # number of LoadLockedReq MSHR misses
system.cpu.dcache.LoadLockedReq_mshr_miss_latency::.cpu.data        93380                       # number of LoadLockedReq MSHR miss cycles
system.cpu.dcache.LoadLockedReq_mshr_miss_latency::total        93380                       # number of LoadLockedReq MSHR miss cycles
system.cpu.dcache.LoadLockedReq_mshr_miss_rate::.cpu.data     0.071429                       # mshr miss rate for LoadLockedReq accesses
system.cpu.dcache.LoadLockedReq_mshr_miss_rate::total     0.071429                       # mshr miss rate for LoadLockedReq accesses
system.cpu.dcache.LoadLockedReq_avg_mshr_miss_latency::.cpu.data        93380                       # average LoadLockedReq mshr miss latency
system.cpu.dcache.LoadLockedReq_avg_mshr_miss_latency::total        93380                       # average LoadLockedReq mshr miss latency
system.cpu.dcache.StoreCondReq_hits::.cpu.data           14                       # number of StoreCondReq hits
system.cpu.dcache.StoreCondReq_hits::total           14                       # number of StoreCondReq hits
system.cpu.dcache.StoreCondReq_accesses::.cpu.data           14                       # number of StoreCondReq accesses(hits+misses)
system.cpu.dcache.StoreCondReq_accesses::total           14                       # number of StoreCondReq accesses(hits+misses)
system.cpu.dcache.tags.pwrStateResidencyTicks::UNDEFINED 319151275223                       # Cumulative time (in ticks) in various power states
system.cpu.dcache.tags.tagsinuse          2046.880549                       # Cycle average of tags in use
system.cpu.dcache.tags.total_refs            45828174                       # Total number of references to valid blocks.
system.cpu.dcache.tags.sampled_refs           2984584                       # Sample count of references to valid blocks.
system.cpu.dcache.tags.avg_refs             15.354962                       # Average number of references to valid blocks.
system.cpu.dcache.tags.warmup_cycle            192096                       # Cycle when the warmup percentage was hit.
system.cpu.dcache.tags.occ_blocks::.cpu.data  2046.880549                       # Average occupied blocks per requestor
system.cpu.dcache.tags.occ_percent::.cpu.data     0.999453                       # Average percentage of cache occupancy
system.cpu.dcache.tags.occ_percent::total     0.999453                       # Average percentage of cache occupancy
system.cpu.dcache.tags.occ_task_id_blocks::1024         2048                       # Occupied blocks per task id
system.cpu.dcache.tags.age_task_id_blocks_1024::0           92                       # Occupied blocks per task id
system.cpu.dcache.tags.age_task_id_blocks_1024::1          840                       # Occupied blocks per task id
system.cpu.dcache.tags.age_task_id_blocks_1024::2         1116                       # Occupied blocks per task id
system.cpu.dcache.tags.occ_task_id_percent::1024            1                       # Percentage of cache occupancy per task id
system.cpu.dcache.tags.tag_accesses          51791311                       # Number of tag accesses
system.cpu.dcache.tags.data_accesses         51791311                       # Number of data accesses
system.cpu.itb.walker.pwrStateResidencyTicks::UNDEFINED 319151275223                       # Cumulative time (in ticks) in various power states
system.cpu.itb.stage2_mmu.stage2_tlb.walker.pwrStateResidencyTicks::UNDEFINED 319151275223                       # Cumulative time (in ticks) in various power states

---------- End Simulation Statistics   ----------
