
---------- Begin Simulation Statistics ----------
final_tick                               883300402500                       # Number of ticks from beginning of simulation (restored from checkpoints and never reset)
host_inst_rate                                 155880                       # Simulator instruction rate (inst/s)
host_mem_usage                                 696640                       # Number of bytes of host memory used
host_op_rate                                   287092                       # Simulator op (including micro ops) rate (op/s)
host_seconds                                   641.52                       # Real time elapsed on the host
host_tick_rate                             1376889635                       # Simulator tick rate (ticks/s)
sim_freq                                 1000000000000                       # Frequency of simulated ticks
sim_insts                                   100000000                       # Number of instructions simulated
sim_ops                                     184174857                       # Number of ops (including micro ops) simulated
sim_seconds                                  0.883300                       # Number of seconds simulated
sim_ticks                                883300402500                       # Number of ticks simulated
system.cpu.branchPred.BTBCorrect                    0                       # Number of correct BTB predictions (this stat may not work properly.
system.cpu.branchPred.BTBHitPct             99.959651                       # BTB Hit Percentage
system.cpu.branchPred.BTBHits                10561022                       # Number of BTB hits
system.cpu.branchPred.BTBLookups             10565285                       # Number of BTB lookups
system.cpu.branchPred.RASInCorrect                  5                       # Number of incorrect RAS predictions.
system.cpu.branchPred.condIncorrect              1454                       # Number of conditional branches incorrect
system.cpu.branchPred.condPredicted          10561888                       # Number of conditional branches predicted
system.cpu.branchPred.indirectHits                 26                       # Number of indirect target hits.
system.cpu.branchPred.indirectLookups             189                       # Number of indirect predictor lookups.
system.cpu.branchPred.indirectMisses              163                       # Number of indirect misses.
system.cpu.branchPred.lookups                10569929                       # Number of BP lookups
system.cpu.branchPred.usedRAS                    2690                       # Number of times the RAS was used to get a target.
system.cpu.branchPredindirectMispredicted          100                       # Number of mispredicted indirect branches.
system.cpu.committedInsts                   100000000                       # Number of instructions committed
system.cpu.committedOps                     184174857                       # Number of ops (including micro ops) committed
system.cpu.cpi                              17.666008                       # CPI: cycles per instruction
system.cpu.discardedOps                          4238                       # Number of ops (including micro ops) which were discarded before commit
system.cpu.dtb.accesses                             0                       # DTB accesses
system.cpu.dtb.align_faults                         0                       # Number of TLB faults due to alignment restrictions
system.cpu.dtb.domain_faults                        0                       # Number of TLB faults due to domain restrictions
system.cpu.dtb.flush_entries                        0                       # Number of entries that have been flushed from TLB
system.cpu.dtb.flush_tlb                            0                       # Number of times complete TLB was flushed
system.cpu.dtb.flush_tlb_asid                       0                       # Number of times TLB was flushed by ASID
system.cpu.dtb.flush_tlb_mva                        0                       # Number of times TLB was flushed by MVA
system.cpu.dtb.flush_tlb_mva_asid                   0                       # Number of times TLB was flushed by MVA & ASID
system.cpu.dtb.hits                                 0                       # DTB hits
system.cpu.dtb.inst_accesses                        0                       # ITB inst accesses
system.cpu.dtb.inst_hits                            0                       # ITB inst hits
system.cpu.dtb.inst_misses                          0                       # ITB inst misses
system.cpu.dtb.misses                               0                       # DTB misses
system.cpu.dtb.perms_faults                         0                       # Number of TLB faults due to permissions restrictions
system.cpu.dtb.prefetch_faults                      0                       # Number of TLB faults due to prefetch
system.cpu.dtb.read_accesses                        0                       # DTB read accesses
system.cpu.dtb.read_hits                            0                       # DTB read hits
system.cpu.dtb.read_misses                          0                       # DTB read misses
system.cpu.dtb.stage2_mmu.stage2_tlb.accesses            0                       # DTB accesses
system.cpu.dtb.stage2_mmu.stage2_tlb.align_faults            0                       # Number of TLB faults due to alignment restrictions
system.cpu.dtb.stage2_mmu.stage2_tlb.domain_faults            0                       # Number of TLB faults due to domain restrictions
system.cpu.dtb.stage2_mmu.stage2_tlb.flush_entries            0                       # Number of entries that have been flushed from TLB
system.cpu.dtb.stage2_mmu.stage2_tlb.flush_tlb            0                       # Number of times complete TLB was flushed
system.cpu.dtb.stage2_mmu.stage2_tlb.flush_tlb_asid            0                       # Number of times TLB was flushed by ASID
system.cpu.dtb.stage2_mmu.stage2_tlb.flush_tlb_mva            0                       # Number of times TLB was flushed by MVA
system.cpu.dtb.stage2_mmu.stage2_tlb.flush_tlb_mva_asid            0                       # Number of times TLB was flushed by MVA & ASID
system.cpu.dtb.stage2_mmu.stage2_tlb.hits            0                       # DTB hits
system.cpu.dtb.stage2_mmu.stage2_tlb.inst_accesses            0                       # ITB inst accesses
system.cpu.dtb.stage2_mmu.stage2_tlb.inst_hits            0                       # ITB inst hits
system.cpu.dtb.stage2_mmu.stage2_tlb.inst_misses            0                       # ITB inst misses
system.cpu.dtb.stage2_mmu.stage2_tlb.misses            0                       # DTB misses
system.cpu.dtb.stage2_mmu.stage2_tlb.perms_faults            0                       # Number of TLB faults due to permissions restrictions
system.cpu.dtb.stage2_mmu.stage2_tlb.prefetch_faults            0                       # Number of TLB faults due to prefetch
system.cpu.dtb.stage2_mmu.stage2_tlb.read_accesses            0                       # DTB read accesses
system.cpu.dtb.stage2_mmu.stage2_tlb.read_hits            0                       # DTB read hits
system.cpu.dtb.stage2_mmu.stage2_tlb.read_misses            0                       # DTB read misses
system.cpu.dtb.stage2_mmu.stage2_tlb.walker.walkRequestOrigin_Requested::Data            0                       # Table walker requests started/completed, data/inst
system.cpu.dtb.stage2_mmu.stage2_tlb.walker.walkRequestOrigin_Requested::Inst            0                       # Table walker requests started/completed, data/inst
system.cpu.dtb.stage2_mmu.stage2_tlb.walker.walkRequestOrigin_Requested::total            0                       # Table walker requests started/completed, data/inst
system.cpu.dtb.stage2_mmu.stage2_tlb.walker.walkRequestOrigin_Completed::Data            0                       # Table walker requests started/completed, data/inst
system.cpu.dtb.stage2_mmu.stage2_tlb.walker.walkRequestOrigin_Completed::Inst            0                       # Table walker requests started/completed, data/inst
system.cpu.dtb.stage2_mmu.stage2_tlb.walker.walkRequestOrigin_Completed::total            0                       # Table walker requests started/completed, data/inst
system.cpu.dtb.stage2_mmu.stage2_tlb.walker.walkRequestOrigin::total            0                       # Table walker requests started/completed, data/inst
system.cpu.dtb.stage2_mmu.stage2_tlb.walker.walks            0                       # Table walker walks requested
system.cpu.dtb.stage2_mmu.stage2_tlb.write_accesses            0                       # DTB write accesses
system.cpu.dtb.stage2_mmu.stage2_tlb.write_hits            0                       # DTB write hits
system.cpu.dtb.stage2_mmu.stage2_tlb.write_misses            0                       # DTB write misses
system.cpu.dtb.walker.walkRequestOrigin_Requested::Data            0                       # Table walker requests started/completed, data/inst
system.cpu.dtb.walker.walkRequestOrigin_Requested::Inst            0                       # Table walker requests started/completed, data/inst
system.cpu.dtb.walker.walkRequestOrigin_Requested::total            0                       # Table walker requests started/completed, data/inst
system.cpu.dtb.walker.walkRequestOrigin_Completed::Data            0                       # Table walker requests started/completed, data/inst
system.cpu.dtb.walker.walkRequestOrigin_Completed::Inst            0                       # Table walker requests started/completed, data/inst
system.cpu.dtb.walker.walkRequestOrigin_Completed::total            0                       # Table walker requests started/completed, data/inst
system.cpu.dtb.walker.walkRequestOrigin::total            0                       # Table walker requests started/completed, data/inst
system.cpu.dtb.walker.walks                         0                       # Table walker walks requested
system.cpu.dtb.write_accesses                       0                       # DTB write accesses
system.cpu.dtb.write_hits                           0                       # DTB write hits
system.cpu.dtb.write_misses                         0                       # DTB write misses
system.cpu.fetch2.amo_instructions                  0                       # Number of memory atomic instructions successfully decoded
system.cpu.fetch2.fp_instructions                   0                       # Number of floating point instructions successfully decoded
system.cpu.fetch2.int_instructions           44894147                       # Number of integer instructions successfully decoded
system.cpu.fetch2.load_instructions           2086061                       # Number of memory load instructions successfully decoded
system.cpu.fetch2.store_instructions           168921                       # Number of memory store instructions successfully decoded
system.cpu.fetch2.vec_instructions                  0                       # Number of SIMD instructions successfully decoded
system.cpu.idleCycles                      1508521829                       # Total number of cycles that the object has spent stopped
system.cpu.ipc                               0.056606                       # IPC: instructions per cycle
system.cpu.itb.accesses                             0                       # DTB accesses
system.cpu.itb.align_faults                         0                       # Number of TLB faults due to alignment restrictions
system.cpu.itb.domain_faults                        0                       # Number of TLB faults due to domain restrictions
system.cpu.itb.flush_entries                        0                       # Number of entries that have been flushed from TLB
system.cpu.itb.flush_tlb                            0                       # Number of times complete TLB was flushed
system.cpu.itb.flush_tlb_asid                       0                       # Number of times TLB was flushed by ASID
system.cpu.itb.flush_tlb_mva                        0                       # Number of times TLB was flushed by MVA
system.cpu.itb.flush_tlb_mva_asid                   0                       # Number of times TLB was flushed by MVA & ASID
system.cpu.itb.hits                                 0                       # DTB hits
system.cpu.itb.inst_accesses                        0                       # ITB inst accesses
system.cpu.itb.inst_hits                            0                       # ITB inst hits
system.cpu.itb.inst_misses                          0                       # ITB inst misses
system.cpu.itb.misses                               0                       # DTB misses
system.cpu.itb.perms_faults                         0                       # Number of TLB faults due to permissions restrictions
system.cpu.itb.prefetch_faults                      0                       # Number of TLB faults due to prefetch
system.cpu.itb.read_accesses                        0                       # DTB read accesses
system.cpu.itb.read_hits                            0                       # DTB read hits
system.cpu.itb.read_misses                          0                       # DTB read misses
system.cpu.itb.stage2_mmu.stage2_tlb.accesses            0                       # DTB accesses
system.cpu.itb.stage2_mmu.stage2_tlb.align_faults            0                       # Number of TLB faults due to alignment restrictions
system.cpu.itb.stage2_mmu.stage2_tlb.domain_faults            0                       # Number of TLB faults due to domain restrictions
system.cpu.itb.stage2_mmu.stage2_tlb.flush_entries            0                       # Number of entries that have been flushed from TLB
system.cpu.itb.stage2_mmu.stage2_tlb.flush_tlb            0                       # Number of times complete TLB was flushed
system.cpu.itb.stage2_mmu.stage2_tlb.flush_tlb_asid            0                       # Number of times TLB was flushed by ASID
system.cpu.itb.stage2_mmu.stage2_tlb.flush_tlb_mva            0                       # Number of times TLB was flushed by MVA
system.cpu.itb.stage2_mmu.stage2_tlb.flush_tlb_mva_asid            0                       # Number of times TLB was flushed by MVA & ASID
system.cpu.itb.stage2_mmu.stage2_tlb.hits            0                       # DTB hits
system.cpu.itb.stage2_mmu.stage2_tlb.inst_accesses            0                       # ITB inst accesses
system.cpu.itb.stage2_mmu.stage2_tlb.inst_hits            0                       # ITB inst hits
system.cpu.itb.stage2_mmu.stage2_tlb.inst_misses            0                       # ITB inst misses
system.cpu.itb.stage2_mmu.stage2_tlb.misses            0                       # DTB misses
system.cpu.itb.stage2_mmu.stage2_tlb.perms_faults            0                       # Number of TLB faults due to permissions restrictions
system.cpu.itb.stage2_mmu.stage2_tlb.prefetch_faults            0                       # Number of TLB faults due to prefetch
system.cpu.itb.stage2_mmu.stage2_tlb.read_accesses            0                       # DTB read accesses
system.cpu.itb.stage2_mmu.stage2_tlb.read_hits            0                       # DTB read hits
system.cpu.itb.stage2_mmu.stage2_tlb.read_misses            0                       # DTB read misses
system.cpu.itb.stage2_mmu.stage2_tlb.walker.walkRequestOrigin_Requested::Data            0                       # Table walker requests started/completed, data/inst
system.cpu.itb.stage2_mmu.stage2_tlb.walker.walkRequestOrigin_Requested::Inst            0                       # Table walker requests started/completed, data/inst
system.cpu.itb.stage2_mmu.stage2_tlb.walker.walkRequestOrigin_Requested::total            0                       # Table walker requests started/completed, data/inst
system.cpu.itb.stage2_mmu.stage2_tlb.walker.walkRequestOrigin_Completed::Data            0                       # Table walker requests started/completed, data/inst
system.cpu.itb.stage2_mmu.stage2_tlb.walker.walkRequestOrigin_Completed::Inst            0                       # Table walker requests started/completed, data/inst
system.cpu.itb.stage2_mmu.stage2_tlb.walker.walkRequestOrigin_Completed::total            0                       # Table walker requests started/completed, data/inst
system.cpu.itb.stage2_mmu.stage2_tlb.walker.walkRequestOrigin::total            0                       # Table walker requests started/completed, data/inst
system.cpu.itb.stage2_mmu.stage2_tlb.walker.walks            0                       # Table walker walks requested
system.cpu.itb.stage2_mmu.stage2_tlb.write_accesses            0                       # DTB write accesses
system.cpu.itb.stage2_mmu.stage2_tlb.write_hits            0                       # DTB write hits
system.cpu.itb.stage2_mmu.stage2_tlb.write_misses            0                       # DTB write misses
system.cpu.itb.walker.walkRequestOrigin_Requested::Data            0                       # Table walker requests started/completed, data/inst
system.cpu.itb.walker.walkRequestOrigin_Requested::Inst            0                       # Table walker requests started/completed, data/inst
system.cpu.itb.walker.walkRequestOrigin_Requested::total            0                       # Table walker requests started/completed, data/inst
system.cpu.itb.walker.walkRequestOrigin_Completed::Data            0                       # Table walker requests started/completed, data/inst
system.cpu.itb.walker.walkRequestOrigin_Completed::Inst            0                       # Table walker requests started/completed, data/inst
system.cpu.itb.walker.walkRequestOrigin_Completed::total            0                       # Table walker requests started/completed, data/inst
system.cpu.itb.walker.walkRequestOrigin::total            0                       # Table walker requests started/completed, data/inst
system.cpu.itb.walker.walks                         0                       # Table walker walks requested
system.cpu.itb.write_accesses                       0                       # DTB write accesses
system.cpu.itb.write_hits                           0                       # DTB write hits
system.cpu.itb.write_misses                         0                       # DTB write misses
system.cpu.numCycles                       1766600805                       # number of cpu cycles simulated
system.cpu.numFetchSuspends                         0                       # Number of times Execute suspended instruction fetching
system.cpu.numWorkItemsCompleted                    0                       # number of work items this cpu completed
system.cpu.numWorkItemsStarted                      0                       # number of work items this cpu started
system.cpu.op_class_0::No_OpClass                   0      0.00%      0.00% # Class of committed instruction
system.cpu.op_class_0::IntAlu                97640483     53.02%     53.02% # Class of committed instruction
system.cpu.op_class_0::IntMult                 114699      0.06%     53.08% # Class of committed instruction
system.cpu.op_class_0::IntDiv                       0      0.00%     53.08% # Class of committed instruction
system.cpu.op_class_0::FloatAdd                     0      0.00%     53.08% # Class of committed instruction
system.cpu.op_class_0::FloatCmp                     0      0.00%     53.08% # Class of committed instruction
system.cpu.op_class_0::FloatCvt                     0      0.00%     53.08% # Class of committed instruction
system.cpu.op_class_0::FloatMult                    0      0.00%     53.08% # Class of committed instruction
system.cpu.op_class_0::FloatMultAcc                 0      0.00%     53.08% # Class of committed instruction
system.cpu.op_class_0::FloatDiv                     0      0.00%     53.08% # Class of committed instruction
system.cpu.op_class_0::FloatMisc                    0      0.00%     53.08% # Class of committed instruction
system.cpu.op_class_0::FloatSqrt                    0      0.00%     53.08% # Class of committed instruction
system.cpu.op_class_0::SimdAdd                      8      0.00%     53.08% # Class of committed instruction
system.cpu.op_class_0::SimdAddAcc                   0      0.00%     53.08% # Class of committed instruction
system.cpu.op_class_0::SimdAlu                      8      0.00%     53.08% # Class of committed instruction
system.cpu.op_class_0::SimdCmp                      6      0.00%     53.08% # Class of committed instruction
system.cpu.op_class_0::SimdCvt                      0      0.00%     53.08% # Class of committed instruction
system.cpu.op_class_0::SimdMisc                     1      0.00%     53.08% # Class of committed instruction
system.cpu.op_class_0::SimdMult                     0      0.00%     53.08% # Class of committed instruction
system.cpu.op_class_0::SimdMultAcc                  0      0.00%     53.08% # Class of committed instruction
system.cpu.op_class_0::SimdShift                    0      0.00%     53.08% # Class of committed instruction
system.cpu.op_class_0::SimdShiftAcc                 0      0.00%     53.08% # Class of committed instruction
system.cpu.op_class_0::SimdDiv                      0      0.00%     53.08% # Class of committed instruction
system.cpu.op_class_0::SimdSqrt                     0      0.00%     53.08% # Class of committed instruction
system.cpu.op_class_0::SimdFloatAdd                 0      0.00%     53.08% # Class of committed instruction
system.cpu.op_class_0::SimdFloatAlu                 0      0.00%     53.08% # Class of committed instruction
system.cpu.op_class_0::SimdFloatCmp                 0      0.00%     53.08% # Class of committed instruction
system.cpu.op_class_0::SimdFloatCvt                 0      0.00%     53.08% # Class of committed instruction
system.cpu.op_class_0::SimdFloatDiv                 0      0.00%     53.08% # Class of committed instruction
system.cpu.op_class_0::SimdFloatMisc               23      0.00%     53.08% # Class of committed instruction
system.cpu.op_class_0::SimdFloatMult                0      0.00%     53.08% # Class of committed instruction
system.cpu.op_class_0::SimdFloatMultAcc             0      0.00%     53.08% # Class of committed instruction
system.cpu.op_class_0::SimdFloatSqrt                0      0.00%     53.08% # Class of committed instruction
system.cpu.op_class_0::SimdReduceAdd                0      0.00%     53.08% # Class of committed instruction
system.cpu.op_class_0::SimdReduceAlu                0      0.00%     53.08% # Class of committed instruction
system.cpu.op_class_0::SimdReduceCmp                0      0.00%     53.08% # Class of committed instruction
system.cpu.op_class_0::SimdFloatReduceAdd            0      0.00%     53.08% # Class of committed instruction
system.cpu.op_class_0::SimdFloatReduceCmp            0      0.00%     53.08% # Class of committed instruction
system.cpu.op_class_0::SimdAes                      0      0.00%     53.08% # Class of committed instruction
system.cpu.op_class_0::SimdAesMix                   0      0.00%     53.08% # Class of committed instruction
system.cpu.op_class_0::SimdSha1Hash                 0      0.00%     53.08% # Class of committed instruction
system.cpu.op_class_0::SimdSha1Hash2                0      0.00%     53.08% # Class of committed instruction
system.cpu.op_class_0::SimdSha256Hash               0      0.00%     53.08% # Class of committed instruction
system.cpu.op_class_0::SimdSha256Hash2              0      0.00%     53.08% # Class of committed instruction
system.cpu.op_class_0::SimdShaSigma2                0      0.00%     53.08% # Class of committed instruction
system.cpu.op_class_0::SimdShaSigma3                0      0.00%     53.08% # Class of committed instruction
system.cpu.op_class_0::SimdPredAlu                  0      0.00%     53.08% # Class of committed instruction
system.cpu.op_class_0::MemRead                2082677      1.13%     54.21% # Class of committed instruction
system.cpu.op_class_0::MemWrite              84336952     45.79%    100.00% # Class of committed instruction
system.cpu.op_class_0::FloatMemRead                 0      0.00%    100.00% # Class of committed instruction
system.cpu.op_class_0::FloatMemWrite                0      0.00%    100.00% # Class of committed instruction
system.cpu.op_class_0::IprAccess                    0      0.00%    100.00% # Class of committed instruction
system.cpu.op_class_0::InstPrefetch                 0      0.00%    100.00% # Class of committed instruction
system.cpu.op_class_0::total                184174857                       # Class of committed instruction
system.cpu.tickCycles                       258078976                       # Number of cycles that the object actually ticked
system.cpu.workload.numSyscalls                    18                       # Number of system calls
system.membus.snoop_filter.hit_multi_requests            0                       # Number of requests hitting in the snoop filter with multiple (>1) holders of the requested data.
system.membus.snoop_filter.hit_multi_snoops            0                       # Number of snoops hitting in the snoop filter with multiple (>1) holders of the requested data.
system.membus.snoop_filter.hit_single_requests     10493334                       # Number of requests hitting in the snoop filter with a single holder of the requested data.
system.membus.snoop_filter.hit_single_snoops            0                       # Number of snoops hitting in the snoop filter with a single holder of the requested data.
system.membus.snoop_filter.tot_requests      21020358                       # Total number of requests made to the snoop filter.
system.membus.snoop_filter.tot_snoops               0                       # Total number of snoops made to the snoop filter.
system.tol2bus.snoop_filter.hit_multi_requests           64                       # Number of requests hitting in the snoop filter with multiple (>1) holders of the requested data.
system.tol2bus.snoop_filter.hit_multi_snoops            0                       # Number of snoops hitting in the snoop filter with multiple (>1) holders of the requested data.
system.tol2bus.snoop_filter.hit_single_requests     10545295                       # Number of requests hitting in the snoop filter with a single holder of the requested data.
system.tol2bus.snoop_filter.hit_single_snoops          944                       # Number of snoops hitting in the snoop filter with a single holder of the requested data.
system.tol2bus.snoop_filter.tot_requests     21095620                       # Total number of requests made to the snoop filter.
system.tol2bus.snoop_filter.tot_snoops            944                       # Total number of snoops made to the snoop filter.
system.membus.pwrStateResidencyTicks::UNDEFINED 883300402500                       # Cumulative time (in ticks) in various power states
system.membus.trans_dist::ReadResp               1317                       # Transaction distribution
system.membus.trans_dist::WritebackDirty     10492989                       # Transaction distribution
system.membus.trans_dist::CleanEvict              334                       # Transaction distribution
system.membus.trans_dist::ReadExReq          10525717                       # Transaction distribution
system.membus.trans_dist::ReadExResp         10525717                       # Transaction distribution
system.membus.trans_dist::ReadSharedReq          1317                       # Transaction distribution
system.membus.trans_dist::InvalidateReq             1                       # Transaction distribution
system.membus.pkt_count_system.l2.mem_side::system.mem_ctrls.port     31547392                       # Packet count per connected master and slave (bytes)
system.membus.pkt_count::total               31547392                       # Packet count per connected master and slave (bytes)
system.membus.pkt_size_system.l2.mem_side::system.mem_ctrls.port    672640736                       # Cumulative packet size per connected master and slave (bytes)
system.membus.pkt_size::total               672640736                       # Cumulative packet size per connected master and slave (bytes)
system.membus.snoops                                0                       # Total snoops (count)
system.membus.snoopTraffic                          0                       # Total snoop traffic (bytes)
system.membus.snoop_fanout::samples          10527035                       # Request fanout histogram
system.membus.snoop_fanout::mean                    0                       # Request fanout histogram
system.membus.snoop_fanout::stdev                   0                       # Request fanout histogram
system.membus.snoop_fanout::underflows              0      0.00%      0.00% # Request fanout histogram
system.membus.snoop_fanout::0                10527035    100.00%    100.00% # Request fanout histogram
system.membus.snoop_fanout::1                       0      0.00%    100.00% # Request fanout histogram
system.membus.snoop_fanout::overflows               0      0.00%    100.00% # Request fanout histogram
system.membus.snoop_fanout::min_value               0                       # Request fanout histogram
system.membus.snoop_fanout::max_value               0                       # Request fanout histogram
system.membus.snoop_fanout::total            10527035                       # Request fanout histogram
system.membus.respLayer1.occupancy        34358453000                       # Layer occupancy (ticks)
system.membus.respLayer1.utilization              3.9                       # Layer utilization (%)
system.membus.reqLayer0.occupancy         42007969000                       # Layer occupancy (ticks)
system.membus.reqLayer0.utilization               4.8                       # Layer utilization (%)
system.tol2bus.pwrStateResidencyTicks::UNDEFINED 883300402500                       # Cumulative time (in ticks) in various power states
system.tol2bus.trans_dist::ReadResp             24524                       # Transaction distribution
system.tol2bus.trans_dist::WritebackDirty     21026321                       # Transaction distribution
system.tol2bus.trans_dist::CleanEvict           13241                       # Transaction distribution
system.tol2bus.trans_dist::ReadExReq         10525799                       # Transaction distribution
system.tol2bus.trans_dist::ReadExResp        10525798                       # Transaction distribution
system.tol2bus.trans_dist::ReadCleanReq           933                       # Transaction distribution
system.tol2bus.trans_dist::ReadSharedReq        23591                       # Transaction distribution
system.tol2bus.trans_dist::InvalidateReq            2                       # Transaction distribution
system.tol2bus.trans_dist::InvalidateResp            2                       # Transaction distribution
system.tol2bus.pkt_count_system.cpu.icache.mem_side::system.l2.cpu_side         1866                       # Packet count per connected master and slave (bytes)
system.tol2bus.pkt_count_system.cpu.dcache.mem_side::system.l2.cpu_side     31644078                       # Packet count per connected master and slave (bytes)
system.tol2bus.pkt_count::total              31645944                       # Packet count per connected master and slave (bytes)
system.tol2bus.pkt_size_system.cpu.icache.mem_side::system.l2.cpu_side        29856                       # Cumulative packet size per connected master and slave (bytes)
system.tol2bus.pkt_size_system.cpu.dcache.mem_side::system.l2.cpu_side    674647072                       # Cumulative packet size per connected master and slave (bytes)
system.tol2bus.pkt_size::total              674676928                       # Cumulative packet size per connected master and slave (bytes)
system.tol2bus.snoops                        10494267                       # Total snoops (count)
system.tol2bus.snoopTraffic                 335775648                       # Total snoop traffic (bytes)
system.tol2bus.snoop_fanout::samples         21044592                       # Request fanout histogram
system.tol2bus.snoop_fanout::mean            0.000048                       # Request fanout histogram
system.tol2bus.snoop_fanout::stdev           0.006921                       # Request fanout histogram
system.tol2bus.snoop_fanout::underflows             0      0.00%      0.00% # Request fanout histogram
system.tol2bus.snoop_fanout::0               21043584    100.00%    100.00% # Request fanout histogram
system.tol2bus.snoop_fanout::1                   1008      0.00%    100.00% # Request fanout histogram
system.tol2bus.snoop_fanout::2                      0      0.00%    100.00% # Request fanout histogram
system.tol2bus.snoop_fanout::overflows              0      0.00%    100.00% # Request fanout histogram
system.tol2bus.snoop_fanout::min_value              0                       # Request fanout histogram
system.tol2bus.snoop_fanout::max_value              1                       # Request fanout histogram
system.tol2bus.snoop_fanout::total           21044592                       # Request fanout histogram
system.tol2bus.reqLayer0.occupancy        15814476000                       # Layer occupancy (ticks)
system.tol2bus.reqLayer0.utilization              1.8                       # Layer utilization (%)
system.tol2bus.respLayer1.occupancy       10549390998                       # Layer occupancy (ticks)
system.tol2bus.respLayer1.utilization             1.2                       # Layer utilization (%)
system.tol2bus.respLayer0.occupancy            933000                       # Layer occupancy (ticks)
system.tol2bus.respLayer0.utilization             0.0                       # Layer utilization (%)
system.voltage_domain.voltage                       1                       # Voltage in Volts
system.clk_domain.clock                          1000                       # Clock period in ticks
system.l2.pwrStateResidencyTicks::UNDEFINED 883300402500                       # Cumulative time (in ticks) in various power states
system.l2.demand_hits::.cpu.inst                   31                       # number of demand (read+write) hits
system.l2.demand_hits::.cpu.data                23255                       # number of demand (read+write) hits
system.l2.demand_hits::total                    23286                       # number of demand (read+write) hits
system.l2.overall_hits::.cpu.inst                  31                       # number of overall hits
system.l2.overall_hits::.cpu.data               23255                       # number of overall hits
system.l2.overall_hits::total                   23286                       # number of overall hits
system.l2.demand_misses::.cpu.inst                902                       # number of demand (read+write) misses
system.l2.demand_misses::.cpu.data           10526135                       # number of demand (read+write) misses
system.l2.demand_misses::total               10527037                       # number of demand (read+write) misses
system.l2.overall_misses::.cpu.inst               902                       # number of overall misses
system.l2.overall_misses::.cpu.data          10526135                       # number of overall misses
system.l2.overall_misses::total              10527037                       # number of overall misses
system.l2.demand_miss_latency::.cpu.inst     70387500                       # number of demand (read+write) miss cycles
system.l2.demand_miss_latency::.cpu.data 811737841000                       # number of demand (read+write) miss cycles
system.l2.demand_miss_latency::total     811808228500                       # number of demand (read+write) miss cycles
system.l2.overall_miss_latency::.cpu.inst     70387500                       # number of overall miss cycles
system.l2.overall_miss_latency::.cpu.data 811737841000                       # number of overall miss cycles
system.l2.overall_miss_latency::total    811808228500                       # number of overall miss cycles
system.l2.demand_accesses::.cpu.inst              933                       # number of demand (read+write) accesses
system.l2.demand_accesses::.cpu.data         10549390                       # number of demand (read+write) accesses
system.l2.demand_accesses::total             10550323                       # number of demand (read+write) accesses
system.l2.overall_accesses::.cpu.inst             933                       # number of overall (read+write) accesses
system.l2.overall_accesses::.cpu.data        10549390                       # number of overall (read+write) accesses
system.l2.overall_accesses::total            10550323                       # number of overall (read+write) accesses
system.l2.demand_miss_rate::.cpu.inst        0.966774                       # miss rate for demand accesses
system.l2.demand_miss_rate::.cpu.data        0.997796                       # miss rate for demand accesses
system.l2.demand_miss_rate::total            0.997793                       # miss rate for demand accesses
system.l2.overall_miss_rate::.cpu.inst       0.966774                       # miss rate for overall accesses
system.l2.overall_miss_rate::.cpu.data       0.997796                       # miss rate for overall accesses
system.l2.overall_miss_rate::total           0.997793                       # miss rate for overall accesses
system.l2.demand_avg_miss_latency::.cpu.inst 78034.922395                       # average overall miss latency
system.l2.demand_avg_miss_latency::.cpu.data 77116.419370                       # average overall miss latency
system.l2.demand_avg_miss_latency::total 77116.498071                       # average overall miss latency
system.l2.overall_avg_miss_latency::.cpu.inst 78034.922395                       # average overall miss latency
system.l2.overall_avg_miss_latency::.cpu.data 77116.419370                       # average overall miss latency
system.l2.overall_avg_miss_latency::total 77116.498071                       # average overall miss latency
system.l2.blocked_cycles::no_mshrs                  0                       # number of cycles access was blocked
system.l2.blocked_cycles::no_targets                0                       # number of cycles access was blocked
system.l2.blocked::no_mshrs                         0                       # number of cycles access was blocked
system.l2.blocked::no_targets                       0                       # number of cycles access was blocked
system.l2.avg_blocked_cycles::no_mshrs            nan                       # average number of cycles each access was blocked
system.l2.avg_blocked_cycles::no_targets          nan                       # average number of cycles each access was blocked
system.l2.writebacks::.writebacks            10492989                       # number of writebacks
system.l2.writebacks::total                  10492989                       # number of writebacks
system.l2.demand_mshr_hits::.cpu.data               2                       # number of demand (read+write) MSHR hits
system.l2.demand_mshr_hits::total                   2                       # number of demand (read+write) MSHR hits
system.l2.overall_mshr_hits::.cpu.data              2                       # number of overall MSHR hits
system.l2.overall_mshr_hits::total                  2                       # number of overall MSHR hits
system.l2.demand_mshr_misses::.cpu.inst           902                       # number of demand (read+write) MSHR misses
system.l2.demand_mshr_misses::.cpu.data      10526133                       # number of demand (read+write) MSHR misses
system.l2.demand_mshr_misses::total          10527035                       # number of demand (read+write) MSHR misses
system.l2.overall_mshr_misses::.cpu.inst          902                       # number of overall MSHR misses
system.l2.overall_mshr_misses::.cpu.data     10526133                       # number of overall MSHR misses
system.l2.overall_mshr_misses::total         10527035                       # number of overall MSHR misses
system.l2.demand_mshr_miss_latency::.cpu.inst     61367500                       # number of demand (read+write) MSHR miss cycles
system.l2.demand_mshr_miss_latency::.cpu.data 706476369500                       # number of demand (read+write) MSHR miss cycles
system.l2.demand_mshr_miss_latency::total 706537737000                       # number of demand (read+write) MSHR miss cycles
system.l2.overall_mshr_miss_latency::.cpu.inst     61367500                       # number of overall MSHR miss cycles
system.l2.overall_mshr_miss_latency::.cpu.data 706476369500                       # number of overall MSHR miss cycles
system.l2.overall_mshr_miss_latency::total 706537737000                       # number of overall MSHR miss cycles
system.l2.demand_mshr_miss_rate::.cpu.inst     0.966774                       # mshr miss rate for demand accesses
system.l2.demand_mshr_miss_rate::.cpu.data     0.997795                       # mshr miss rate for demand accesses
system.l2.demand_mshr_miss_rate::total       0.997793                       # mshr miss rate for demand accesses
system.l2.overall_mshr_miss_rate::.cpu.inst     0.966774                       # mshr miss rate for overall accesses
system.l2.overall_mshr_miss_rate::.cpu.data     0.997795                       # mshr miss rate for overall accesses
system.l2.overall_mshr_miss_rate::total      0.997793                       # mshr miss rate for overall accesses
system.l2.demand_avg_mshr_miss_latency::.cpu.inst 68034.922395                       # average overall mshr miss latency
system.l2.demand_avg_mshr_miss_latency::.cpu.data 67116.420579                       # average overall mshr miss latency
system.l2.demand_avg_mshr_miss_latency::total 67116.499280                       # average overall mshr miss latency
system.l2.overall_avg_mshr_miss_latency::.cpu.inst 68034.922395                       # average overall mshr miss latency
system.l2.overall_avg_mshr_miss_latency::.cpu.data 67116.420579                       # average overall mshr miss latency
system.l2.overall_avg_mshr_miss_latency::total 67116.499280                       # average overall mshr miss latency
system.l2.replacements                       10494267                       # number of replacements
system.l2.WritebackDirty_hits::.writebacks     10533332                       # number of WritebackDirty hits
system.l2.WritebackDirty_hits::total         10533332                       # number of WritebackDirty hits
system.l2.WritebackDirty_accesses::.writebacks     10533332                       # number of WritebackDirty accesses(hits+misses)
system.l2.WritebackDirty_accesses::total     10533332                       # number of WritebackDirty accesses(hits+misses)
system.l2.ReadExReq_hits::.cpu.data                81                       # number of ReadExReq hits
system.l2.ReadExReq_hits::total                    81                       # number of ReadExReq hits
system.l2.ReadExReq_misses::.cpu.data        10525718                       # number of ReadExReq misses
system.l2.ReadExReq_misses::total            10525718                       # number of ReadExReq misses
system.l2.ReadExReq_miss_latency::.cpu.data 811703579500                       # number of ReadExReq miss cycles
system.l2.ReadExReq_miss_latency::total  811703579500                       # number of ReadExReq miss cycles
system.l2.ReadExReq_accesses::.cpu.data      10525799                       # number of ReadExReq accesses(hits+misses)
system.l2.ReadExReq_accesses::total          10525799                       # number of ReadExReq accesses(hits+misses)
system.l2.ReadExReq_miss_rate::.cpu.data     0.999992                       # miss rate for ReadExReq accesses
system.l2.ReadExReq_miss_rate::total         0.999992                       # miss rate for ReadExReq accesses
system.l2.ReadExReq_avg_miss_latency::.cpu.data 77116.219483                       # average ReadExReq miss latency
system.l2.ReadExReq_avg_miss_latency::total 77116.219483                       # average ReadExReq miss latency
system.l2.ReadExReq_mshr_misses::.cpu.data     10525718                       # number of ReadExReq MSHR misses
system.l2.ReadExReq_mshr_misses::total       10525718                       # number of ReadExReq MSHR misses
system.l2.ReadExReq_mshr_miss_latency::.cpu.data 706446409500                       # number of ReadExReq MSHR miss cycles
system.l2.ReadExReq_mshr_miss_latency::total 706446409500                       # number of ReadExReq MSHR miss cycles
system.l2.ReadExReq_mshr_miss_rate::.cpu.data     0.999992                       # mshr miss rate for ReadExReq accesses
system.l2.ReadExReq_mshr_miss_rate::total     0.999992                       # mshr miss rate for ReadExReq accesses
system.l2.ReadExReq_avg_mshr_miss_latency::.cpu.data 67116.220433                       # average ReadExReq mshr miss latency
system.l2.ReadExReq_avg_mshr_miss_latency::total 67116.220433                       # average ReadExReq mshr miss latency
system.l2.ReadCleanReq_hits::.cpu.inst             31                       # number of ReadCleanReq hits
system.l2.ReadCleanReq_hits::total                 31                       # number of ReadCleanReq hits
system.l2.ReadCleanReq_misses::.cpu.inst          902                       # number of ReadCleanReq misses
system.l2.ReadCleanReq_misses::total              902                       # number of ReadCleanReq misses
system.l2.ReadCleanReq_miss_latency::.cpu.inst     70387500                       # number of ReadCleanReq miss cycles
system.l2.ReadCleanReq_miss_latency::total     70387500                       # number of ReadCleanReq miss cycles
system.l2.ReadCleanReq_accesses::.cpu.inst          933                       # number of ReadCleanReq accesses(hits+misses)
system.l2.ReadCleanReq_accesses::total            933                       # number of ReadCleanReq accesses(hits+misses)
system.l2.ReadCleanReq_miss_rate::.cpu.inst     0.966774                       # miss rate for ReadCleanReq accesses
system.l2.ReadCleanReq_miss_rate::total      0.966774                       # miss rate for ReadCleanReq accesses
system.l2.ReadCleanReq_avg_miss_latency::.cpu.inst 78034.922395                       # average ReadCleanReq miss latency
system.l2.ReadCleanReq_avg_miss_latency::total 78034.922395                       # average ReadCleanReq miss latency
system.l2.ReadCleanReq_mshr_misses::.cpu.inst          902                       # number of ReadCleanReq MSHR misses
system.l2.ReadCleanReq_mshr_misses::total          902                       # number of ReadCleanReq MSHR misses
system.l2.ReadCleanReq_mshr_miss_latency::.cpu.inst     61367500                       # number of ReadCleanReq MSHR miss cycles
system.l2.ReadCleanReq_mshr_miss_latency::total     61367500                       # number of ReadCleanReq MSHR miss cycles
system.l2.ReadCleanReq_mshr_miss_rate::.cpu.inst     0.966774                       # mshr miss rate for ReadCleanReq accesses
system.l2.ReadCleanReq_mshr_miss_rate::total     0.966774                       # mshr miss rate for ReadCleanReq accesses
system.l2.ReadCleanReq_avg_mshr_miss_latency::.cpu.inst 68034.922395                       # average ReadCleanReq mshr miss latency
system.l2.ReadCleanReq_avg_mshr_miss_latency::total 68034.922395                       # average ReadCleanReq mshr miss latency
system.l2.ReadSharedReq_hits::.cpu.data         23174                       # number of ReadSharedReq hits
system.l2.ReadSharedReq_hits::total             23174                       # number of ReadSharedReq hits
system.l2.ReadSharedReq_misses::.cpu.data          417                       # number of ReadSharedReq misses
system.l2.ReadSharedReq_misses::total             417                       # number of ReadSharedReq misses
system.l2.ReadSharedReq_miss_latency::.cpu.data     34261500                       # number of ReadSharedReq miss cycles
system.l2.ReadSharedReq_miss_latency::total     34261500                       # number of ReadSharedReq miss cycles
system.l2.ReadSharedReq_accesses::.cpu.data        23591                       # number of ReadSharedReq accesses(hits+misses)
system.l2.ReadSharedReq_accesses::total         23591                       # number of ReadSharedReq accesses(hits+misses)
system.l2.ReadSharedReq_miss_rate::.cpu.data     0.017676                       # miss rate for ReadSharedReq accesses
system.l2.ReadSharedReq_miss_rate::total     0.017676                       # miss rate for ReadSharedReq accesses
system.l2.ReadSharedReq_avg_miss_latency::.cpu.data 82161.870504                       # average ReadSharedReq miss latency
system.l2.ReadSharedReq_avg_miss_latency::total 82161.870504                       # average ReadSharedReq miss latency
system.l2.ReadSharedReq_mshr_hits::.cpu.data            2                       # number of ReadSharedReq MSHR hits
system.l2.ReadSharedReq_mshr_hits::total            2                       # number of ReadSharedReq MSHR hits
system.l2.ReadSharedReq_mshr_misses::.cpu.data          415                       # number of ReadSharedReq MSHR misses
system.l2.ReadSharedReq_mshr_misses::total          415                       # number of ReadSharedReq MSHR misses
system.l2.ReadSharedReq_mshr_miss_latency::.cpu.data     29960000                       # number of ReadSharedReq MSHR miss cycles
system.l2.ReadSharedReq_mshr_miss_latency::total     29960000                       # number of ReadSharedReq MSHR miss cycles
system.l2.ReadSharedReq_mshr_miss_rate::.cpu.data     0.017591                       # mshr miss rate for ReadSharedReq accesses
system.l2.ReadSharedReq_mshr_miss_rate::total     0.017591                       # mshr miss rate for ReadSharedReq accesses
system.l2.ReadSharedReq_avg_mshr_miss_latency::.cpu.data 72192.771084                       # average ReadSharedReq mshr miss latency
system.l2.ReadSharedReq_avg_mshr_miss_latency::total 72192.771084                       # average ReadSharedReq mshr miss latency
system.l2.InvalidateReq_hits::.cpu.data             1                       # number of InvalidateReq hits
system.l2.InvalidateReq_hits::total                 1                       # number of InvalidateReq hits
system.l2.InvalidateReq_misses::.cpu.data            1                       # number of InvalidateReq misses
system.l2.InvalidateReq_misses::total               1                       # number of InvalidateReq misses
system.l2.InvalidateReq_accesses::.cpu.data            2                       # number of InvalidateReq accesses(hits+misses)
system.l2.InvalidateReq_accesses::total             2                       # number of InvalidateReq accesses(hits+misses)
system.l2.InvalidateReq_miss_rate::.cpu.data     0.500000                       # miss rate for InvalidateReq accesses
system.l2.InvalidateReq_miss_rate::total     0.500000                       # miss rate for InvalidateReq accesses
system.l2.InvalidateReq_mshr_misses::.cpu.data            1                       # number of InvalidateReq MSHR misses
system.l2.InvalidateReq_mshr_misses::total            1                       # number of InvalidateReq MSHR misses
system.l2.InvalidateReq_mshr_miss_latency::.cpu.data        19500                       # number of InvalidateReq MSHR miss cycles
system.l2.InvalidateReq_mshr_miss_latency::total        19500                       # number of InvalidateReq MSHR miss cycles
system.l2.InvalidateReq_mshr_miss_rate::.cpu.data     0.500000                       # mshr miss rate for InvalidateReq accesses
system.l2.InvalidateReq_mshr_miss_rate::total     0.500000                       # mshr miss rate for InvalidateReq accesses
system.l2.InvalidateReq_avg_mshr_miss_latency::.cpu.data        19500                       # average InvalidateReq mshr miss latency
system.l2.InvalidateReq_avg_mshr_miss_latency::total        19500                       # average InvalidateReq mshr miss latency
system.l2.tags.pwrStateResidencyTicks::UNDEFINED 883300402500                       # Cumulative time (in ticks) in various power states
system.l2.tags.tagsinuse                 32615.789404                       # Cycle average of tags in use
system.l2.tags.total_refs                    21095552                       # Total number of references to valid blocks.
system.l2.tags.sampled_refs                  10527036                       # Sample count of references to valid blocks.
system.l2.tags.avg_refs                      2.003940                       # Average number of references to valid blocks.
system.l2.tags.warmup_cycle                     77000                       # Cycle when the warmup percentage was hit.
system.l2.tags.occ_blocks::.writebacks       0.004555                       # Average occupied blocks per requestor
system.l2.tags.occ_blocks::.cpu.inst         3.879254                       # Average occupied blocks per requestor
system.l2.tags.occ_blocks::.cpu.data     32611.905595                       # Average occupied blocks per requestor
system.l2.tags.occ_percent::.writebacks      0.000000                       # Average percentage of cache occupancy
system.l2.tags.occ_percent::.cpu.inst        0.000118                       # Average percentage of cache occupancy
system.l2.tags.occ_percent::.cpu.data        0.995236                       # Average percentage of cache occupancy
system.l2.tags.occ_percent::total            0.995355                       # Average percentage of cache occupancy
system.l2.tags.occ_task_id_blocks::1024         32768                       # Occupied blocks per task id
system.l2.tags.age_task_id_blocks_1024::0          120                       # Occupied blocks per task id
system.l2.tags.age_task_id_blocks_1024::1         1074                       # Occupied blocks per task id
system.l2.tags.age_task_id_blocks_1024::2        10763                       # Occupied blocks per task id
system.l2.tags.age_task_id_blocks_1024::3        20811                       # Occupied blocks per task id
system.l2.tags.occ_task_id_percent::1024            1                       # Percentage of cache occupancy per task id
system.l2.tags.tag_accesses                  52718148                       # Number of tag accesses
system.l2.tags.data_accesses                 52718148                       # Number of data accesses
system.cpu_voltage_domain.voltage                   1                       # Voltage in Volts
system.mem_ctrls.pwrStateResidencyTicks::UNDEFINED 883300402500                       # Cumulative time (in ticks) in various power states
system.mem_ctrls.bytes_read::.cpu.inst          28864                       # Number of bytes read from this memory
system.mem_ctrls.bytes_read::.cpu.data      336836224                       # Number of bytes read from this memory
system.mem_ctrls.bytes_read::total          336865088                       # Number of bytes read from this memory
system.mem_ctrls.bytes_inst_read::.cpu.inst        28864                       # Number of instructions bytes read from this memory
system.mem_ctrls.bytes_inst_read::total         28864                       # Number of instructions bytes read from this memory
system.mem_ctrls.bytes_written::.writebacks    335775648                       # Number of bytes written to this memory
system.mem_ctrls.bytes_written::total       335775648                       # Number of bytes written to this memory
system.mem_ctrls.num_reads::.cpu.inst             902                       # Number of read requests responded to by this memory
system.mem_ctrls.num_reads::.cpu.data        10526132                       # Number of read requests responded to by this memory
system.mem_ctrls.num_reads::total            10527034                       # Number of read requests responded to by this memory
system.mem_ctrls.num_writes::.writebacks     10492989                       # Number of write requests responded to by this memory
system.mem_ctrls.num_writes::total           10492989                       # Number of write requests responded to by this memory
system.mem_ctrls.bw_read::.cpu.inst             32677                       # Total read bandwidth from this memory (bytes/s)
system.mem_ctrls.bw_read::.cpu.data         381338244                       # Total read bandwidth from this memory (bytes/s)
system.mem_ctrls.bw_read::total             381370921                       # Total read bandwidth from this memory (bytes/s)
system.mem_ctrls.bw_inst_read::.cpu.inst        32677                       # Instruction read bandwidth from this memory (bytes/s)
system.mem_ctrls.bw_inst_read::total            32677                       # Instruction read bandwidth from this memory (bytes/s)
system.mem_ctrls.bw_write::.writebacks      380137547                       # Write bandwidth from this memory (bytes/s)
system.mem_ctrls.bw_write::total            380137547                       # Write bandwidth from this memory (bytes/s)
system.mem_ctrls.bw_total::.writebacks      380137547                       # Total bandwidth to/from this memory (bytes/s)
system.mem_ctrls.bw_total::.cpu.inst            32677                       # Total bandwidth to/from this memory (bytes/s)
system.mem_ctrls.bw_total::.cpu.data        381338244                       # Total bandwidth to/from this memory (bytes/s)
system.mem_ctrls.bw_total::total            761508468                       # Total bandwidth to/from this memory (bytes/s)
system.mem_ctrls.avgPriority_.writebacks::samples   5247015.00                       # Average QoS priority value for accepted requests
system.mem_ctrls.avgPriority_.cpu.inst::samples       902.00                       # Average QoS priority value for accepted requests
system.mem_ctrls.avgPriority_.cpu.data::samples  10526132.00                       # Average QoS priority value for accepted requests
system.mem_ctrls.priorityMinLatency      0.000000018750                       # per QoS priority minimum request to response latency (s)
system.mem_ctrls.priorityMaxLatency      0.001949941250                       # per QoS priority maximum request to response latency (s)
system.mem_ctrls.numReadWriteTurnArounds       327933                       # Number of turnarounds from READ to WRITE
system.mem_ctrls.numWriteReadTurnArounds       327933                       # Number of turnarounds from WRITE to READ
system.mem_ctrls.numStayReadState            31426530                       # Number of times bus staying in READ state
system.mem_ctrls.numStayWriteState            4938313                       # Number of times bus staying in WRITE state
system.mem_ctrls.readReqs                    10527034                       # Number of read requests accepted
system.mem_ctrls.writeReqs                   10492989                       # Number of write requests accepted
system.mem_ctrls.readBursts                  10527034                       # Number of DRAM read bursts, including those serviced by the write queue
system.mem_ctrls.writeBursts                 10492989                       # Number of DRAM write bursts, including those merged in the write queue
system.mem_ctrls.servicedByWrQ                      0                       # Number of DRAM read bursts serviced by the write queue
system.mem_ctrls.mergedWrBursts               5245974                       # Number of DRAM write bursts merged with an existing one
system.mem_ctrls.neitherReadNorWriteReqs            0                       # Number of requests that are neither read nor write
system.mem_ctrls.perBankRdBursts::0            657997                       # Per bank write bursts
system.mem_ctrls.perBankRdBursts::1            658032                       # Per bank write bursts
system.mem_ctrls.perBankRdBursts::2            658122                       # Per bank write bursts
system.mem_ctrls.perBankRdBursts::3            658094                       # Per bank write bursts
system.mem_ctrls.perBankRdBursts::4            658024                       # Per bank write bursts
system.mem_ctrls.perBankRdBursts::5            658085                       # Per bank write bursts
system.mem_ctrls.perBankRdBursts::6            658118                       # Per bank write bursts
system.mem_ctrls.perBankRdBursts::7            657849                       # Per bank write bursts
system.mem_ctrls.perBankRdBursts::8            657767                       # Per bank write bursts
system.mem_ctrls.perBankRdBursts::9            657715                       # Per bank write bursts
system.mem_ctrls.perBankRdBursts::10           657626                       # Per bank write bursts
system.mem_ctrls.perBankRdBursts::11           657988                       # Per bank write bursts
system.mem_ctrls.perBankRdBursts::12           657994                       # Per bank write bursts
system.mem_ctrls.perBankRdBursts::13           658001                       # Per bank write bursts
system.mem_ctrls.perBankRdBursts::14           657903                       # Per bank write bursts
system.mem_ctrls.perBankRdBursts::15           657719                       # Per bank write bursts
system.mem_ctrls.perBankWrBursts::0            327930                       # Per bank write bursts
system.mem_ctrls.perBankWrBursts::1            327987                       # Per bank write bursts
system.mem_ctrls.perBankWrBursts::2            328061                       # Per bank write bursts
system.mem_ctrls.perBankWrBursts::3            328038                       # Per bank write bursts
system.mem_ctrls.perBankWrBursts::4            327993                       # Per bank write bursts
system.mem_ctrls.perBankWrBursts::5            328007                       # Per bank write bursts
system.mem_ctrls.perBankWrBursts::6            328028                       # Per bank write bursts
system.mem_ctrls.perBankWrBursts::7            327905                       # Per bank write bursts
system.mem_ctrls.perBankWrBursts::8            327826                       # Per bank write bursts
system.mem_ctrls.perBankWrBursts::9            327813                       # Per bank write bursts
system.mem_ctrls.perBankWrBursts::10           327745                       # Per bank write bursts
system.mem_ctrls.perBankWrBursts::11           327993                       # Per bank write bursts
system.mem_ctrls.perBankWrBursts::12           327972                       # Per bank write bursts
system.mem_ctrls.perBankWrBursts::13           327951                       # Per bank write bursts
system.mem_ctrls.perBankWrBursts::14           327902                       # Per bank write bursts
system.mem_ctrls.perBankWrBursts::15           327846                       # Per bank write bursts
system.mem_ctrls.avgRdQLen                       1.00                       # Average read queue length when enqueuing
system.mem_ctrls.avgWrQLen                      25.75                       # Average write queue length when enqueuing
system.mem_ctrls.totQLat                  80031934500                       # Total ticks spent queuing
system.mem_ctrls.totBusLat                52635170000                       # Total ticks spent in databus transfers
system.mem_ctrls.totMemAccLat            277413822000                       # Total ticks spent from burst creation until serviced by the DRAM
system.mem_ctrls.avgQLat                      7602.52                       # Average queueing delay per DRAM burst
system.mem_ctrls.avgBusLat                    5000.00                       # Average bus latency per DRAM burst
system.mem_ctrls.avgMemAccLat                26352.52                       # Average memory access latency per DRAM burst
system.mem_ctrls.numRdRetry                         0                       # Number of times read queue was full causing retry
system.mem_ctrls.numWrRetry                         0                       # Number of times write queue was full causing retry
system.mem_ctrls.readRowHits                  9723984                       # Number of row buffer hits during reads
system.mem_ctrls.writeRowHits                 4868299                       # Number of row buffer hits during writes
system.mem_ctrls.readRowHitRate                 92.37                       # Row buffer hit rate for reads
system.mem_ctrls.writeRowHitRate                92.78                       # Row buffer hit rate for writes
system.mem_ctrls.readPktSize::0                     0                       # Read request sizes (log2)
system.mem_ctrls.readPktSize::1                     0                       # Read request sizes (log2)
system.mem_ctrls.readPktSize::2                     0                       # Read request sizes (log2)
system.mem_ctrls.readPktSize::3                     0                       # Read request sizes (log2)
system.mem_ctrls.readPktSize::4                     0                       # Read request sizes (log2)
system.mem_ctrls.readPktSize::5              10527034                       # Read request sizes (log2)
system.mem_ctrls.readPktSize::6                     0                       # Read request sizes (log2)
system.mem_ctrls.writePktSize::0                    0                       # Write request sizes (log2)
system.mem_ctrls.writePktSize::1                    0                       # Write request sizes (log2)
system.mem_ctrls.writePktSize::2                    0                       # Write request sizes (log2)
system.mem_ctrls.writePktSize::3                    0                       # Write request sizes (log2)
system.mem_ctrls.writePktSize::4                    0                       # Write request sizes (log2)
system.mem_ctrls.writePktSize::5             10492989                       # Write request sizes (log2)
system.mem_ctrls.writePktSize::6                    0                       # Write request sizes (log2)
system.mem_ctrls.rdQLenPdf::0                10525592                       # What read queue length does an incoming req see
system.mem_ctrls.rdQLenPdf::1                    1394                       # What read queue length does an incoming req see
system.mem_ctrls.rdQLenPdf::2                      45                       # What read queue length does an incoming req see
system.mem_ctrls.rdQLenPdf::3                       3                       # What read queue length does an incoming req see
system.mem_ctrls.rdQLenPdf::4                       0                       # What read queue length does an incoming req see
system.mem_ctrls.rdQLenPdf::5                       0                       # What read queue length does an incoming req see
system.mem_ctrls.rdQLenPdf::6                       0                       # What read queue length does an incoming req see
system.mem_ctrls.rdQLenPdf::7                       0                       # What read queue length does an incoming req see
system.mem_ctrls.rdQLenPdf::8                       0                       # What read queue length does an incoming req see
system.mem_ctrls.rdQLenPdf::9                       0                       # What read queue length does an incoming req see
system.mem_ctrls.rdQLenPdf::10                      0                       # What read queue length does an incoming req see
system.mem_ctrls.rdQLenPdf::11                      0                       # What read queue length does an incoming req see
system.mem_ctrls.rdQLenPdf::12                      0                       # What read queue length does an incoming req see
system.mem_ctrls.rdQLenPdf::13                      0                       # What read queue length does an incoming req see
system.mem_ctrls.rdQLenPdf::14                      0                       # What read queue length does an incoming req see
system.mem_ctrls.rdQLenPdf::15                      0                       # What read queue length does an incoming req see
system.mem_ctrls.rdQLenPdf::16                      0                       # What read queue length does an incoming req see
system.mem_ctrls.rdQLenPdf::17                      0                       # What read queue length does an incoming req see
system.mem_ctrls.rdQLenPdf::18                      0                       # What read queue length does an incoming req see
system.mem_ctrls.rdQLenPdf::19                      0                       # What read queue length does an incoming req see
system.mem_ctrls.rdQLenPdf::20                      0                       # What read queue length does an incoming req see
system.mem_ctrls.rdQLenPdf::21                      0                       # What read queue length does an incoming req see
system.mem_ctrls.rdQLenPdf::22                      0                       # What read queue length does an incoming req see
system.mem_ctrls.rdQLenPdf::23                      0                       # What read queue length does an incoming req see
system.mem_ctrls.rdQLenPdf::24                      0                       # What read queue length does an incoming req see
system.mem_ctrls.rdQLenPdf::25                      0                       # What read queue length does an incoming req see
system.mem_ctrls.rdQLenPdf::26                      0                       # What read queue length does an incoming req see
system.mem_ctrls.rdQLenPdf::27                      0                       # What read queue length does an incoming req see
system.mem_ctrls.rdQLenPdf::28                      0                       # What read queue length does an incoming req see
system.mem_ctrls.rdQLenPdf::29                      0                       # What read queue length does an incoming req see
system.mem_ctrls.rdQLenPdf::30                      0                       # What read queue length does an incoming req see
system.mem_ctrls.rdQLenPdf::31                      0                       # What read queue length does an incoming req see
system.mem_ctrls.wrQLenPdf::0                       1                       # What write queue length does an incoming req see
system.mem_ctrls.wrQLenPdf::1                       1                       # What write queue length does an incoming req see
system.mem_ctrls.wrQLenPdf::2                       1                       # What write queue length does an incoming req see
system.mem_ctrls.wrQLenPdf::3                       1                       # What write queue length does an incoming req see
system.mem_ctrls.wrQLenPdf::4                       1                       # What write queue length does an incoming req see
system.mem_ctrls.wrQLenPdf::5                       1                       # What write queue length does an incoming req see
system.mem_ctrls.wrQLenPdf::6                       1                       # What write queue length does an incoming req see
system.mem_ctrls.wrQLenPdf::7                       1                       # What write queue length does an incoming req see
system.mem_ctrls.wrQLenPdf::8                       1                       # What write queue length does an incoming req see
system.mem_ctrls.wrQLenPdf::9                       1                       # What write queue length does an incoming req see
system.mem_ctrls.wrQLenPdf::10                      1                       # What write queue length does an incoming req see
system.mem_ctrls.wrQLenPdf::11                      1                       # What write queue length does an incoming req see
system.mem_ctrls.wrQLenPdf::12                      1                       # What write queue length does an incoming req see
system.mem_ctrls.wrQLenPdf::13                      1                       # What write queue length does an incoming req see
system.mem_ctrls.wrQLenPdf::14                      1                       # What write queue length does an incoming req see
system.mem_ctrls.wrQLenPdf::15                     33                       # What write queue length does an incoming req see
system.mem_ctrls.wrQLenPdf::16                     37                       # What write queue length does an incoming req see
system.mem_ctrls.wrQLenPdf::17                 327930                       # What write queue length does an incoming req see
system.mem_ctrls.wrQLenPdf::18                 327933                       # What write queue length does an incoming req see
system.mem_ctrls.wrQLenPdf::19                 327934                       # What write queue length does an incoming req see
system.mem_ctrls.wrQLenPdf::20                 327933                       # What write queue length does an incoming req see
system.mem_ctrls.wrQLenPdf::21                 327933                       # What write queue length does an incoming req see
system.mem_ctrls.wrQLenPdf::22                 327933                       # What write queue length does an incoming req see
system.mem_ctrls.wrQLenPdf::23                 327933                       # What write queue length does an incoming req see
system.mem_ctrls.wrQLenPdf::24                 327933                       # What write queue length does an incoming req see
system.mem_ctrls.wrQLenPdf::25                 327934                       # What write queue length does an incoming req see
system.mem_ctrls.wrQLenPdf::26                 327933                       # What write queue length does an incoming req see
system.mem_ctrls.wrQLenPdf::27                 327933                       # What write queue length does an incoming req see
system.mem_ctrls.wrQLenPdf::28                 327933                       # What write queue length does an incoming req see
system.mem_ctrls.wrQLenPdf::29                 327935                       # What write queue length does an incoming req see
system.mem_ctrls.wrQLenPdf::30                 327933                       # What write queue length does an incoming req see
system.mem_ctrls.wrQLenPdf::31                 327934                       # What write queue length does an incoming req see
system.mem_ctrls.wrQLenPdf::32                 327933                       # What write queue length does an incoming req see
system.mem_ctrls.wrQLenPdf::33                      0                       # What write queue length does an incoming req see
system.mem_ctrls.wrQLenPdf::34                      0                       # What write queue length does an incoming req see
system.mem_ctrls.wrQLenPdf::35                      0                       # What write queue length does an incoming req see
system.mem_ctrls.wrQLenPdf::36                      0                       # What write queue length does an incoming req see
system.mem_ctrls.wrQLenPdf::37                      0                       # What write queue length does an incoming req see
system.mem_ctrls.wrQLenPdf::38                      0                       # What write queue length does an incoming req see
system.mem_ctrls.wrQLenPdf::39                      0                       # What write queue length does an incoming req see
system.mem_ctrls.wrQLenPdf::40                      0                       # What write queue length does an incoming req see
system.mem_ctrls.wrQLenPdf::41                      0                       # What write queue length does an incoming req see
system.mem_ctrls.wrQLenPdf::42                      0                       # What write queue length does an incoming req see
system.mem_ctrls.wrQLenPdf::43                      0                       # What write queue length does an incoming req see
system.mem_ctrls.wrQLenPdf::44                      0                       # What write queue length does an incoming req see
system.mem_ctrls.wrQLenPdf::45                      0                       # What write queue length does an incoming req see
system.mem_ctrls.wrQLenPdf::46                      0                       # What write queue length does an incoming req see
system.mem_ctrls.wrQLenPdf::47                      0                       # What write queue length does an incoming req see
system.mem_ctrls.wrQLenPdf::48                      0                       # What write queue length does an incoming req see
system.mem_ctrls.wrQLenPdf::49                      0                       # What write queue length does an incoming req see
system.mem_ctrls.wrQLenPdf::50                      0                       # What write queue length does an incoming req see
system.mem_ctrls.wrQLenPdf::51                      0                       # What write queue length does an incoming req see
system.mem_ctrls.wrQLenPdf::52                      0                       # What write queue length does an incoming req see
system.mem_ctrls.wrQLenPdf::53                      0                       # What write queue length does an incoming req see
system.mem_ctrls.wrQLenPdf::54                      0                       # What write queue length does an incoming req see
system.mem_ctrls.wrQLenPdf::55                      0                       # What write queue length does an incoming req see
system.mem_ctrls.wrQLenPdf::56                      0                       # What write queue length does an incoming req see
system.mem_ctrls.wrQLenPdf::57                      0                       # What write queue length does an incoming req see
system.mem_ctrls.wrQLenPdf::58                      0                       # What write queue length does an incoming req see
system.mem_ctrls.wrQLenPdf::59                      0                       # What write queue length does an incoming req see
system.mem_ctrls.wrQLenPdf::60                      0                       # What write queue length does an incoming req see
system.mem_ctrls.wrQLenPdf::61                      0                       # What write queue length does an incoming req see
system.mem_ctrls.wrQLenPdf::62                      0                       # What write queue length does an incoming req see
system.mem_ctrls.wrQLenPdf::63                      0                       # What write queue length does an incoming req see
system.mem_ctrls.bytesPerActivate::samples      1181747                       # Bytes accessed per row activation
system.mem_ctrls.bytesPerActivate::mean    854.275739                       # Bytes accessed per row activation
system.mem_ctrls.bytesPerActivate::gmean   757.145278                       # Bytes accessed per row activation
system.mem_ctrls.bytesPerActivate::stdev   293.046239                       # Bytes accessed per row activation
system.mem_ctrls.bytesPerActivate::0-127        14110      1.19%      1.19% # Bytes accessed per row activation
system.mem_ctrls.bytesPerActivate::128-255        88233      7.47%      8.66% # Bytes accessed per row activation
system.mem_ctrls.bytesPerActivate::256-383        42035      3.56%     12.22% # Bytes accessed per row activation
system.mem_ctrls.bytesPerActivate::384-511        51217      4.33%     16.55% # Bytes accessed per row activation
system.mem_ctrls.bytesPerActivate::512-639        50362      4.26%     20.81% # Bytes accessed per row activation
system.mem_ctrls.bytesPerActivate::640-767        32368      2.74%     23.55% # Bytes accessed per row activation
system.mem_ctrls.bytesPerActivate::768-895        68832      5.82%     29.38% # Bytes accessed per row activation
system.mem_ctrls.bytesPerActivate::896-1023        23501      1.99%     31.37% # Bytes accessed per row activation
system.mem_ctrls.bytesPerActivate::1024-1151       811089     68.63%    100.00% # Bytes accessed per row activation
system.mem_ctrls.bytesPerActivate::total      1181747                       # Bytes accessed per row activation
system.mem_ctrls.rdPerTurnAround::samples       327933                       # Reads before turning the bus around for writes
[...]
system.cpu.icache.tags.occ_blocks::.cpu.inst   772.553071                       # Average occupied blocks per requestor
system.cpu.icache.tags.occ_percent::.cpu.inst     0.047153                       # Average percentage of cache occupancy
system.cpu.icache.tags.occ_percent::total     0.047153                       # Average percentage of cache occupancy
system.cpu.icache.tags.occ_task_id_blocks::1024          933                       # Occupied blocks per task id
system.cpu.icache.tags.age_task_id_blocks_1024::4          933                       # Occupied blocks per task id
system.cpu.icache.tags.occ_task_id_percent::1024     0.056946                       # Percentage of cache occupancy per task id
system.cpu.icache.tags.tag_accesses          85183331                       # Number of tag accesses
system.cpu.icache.tags.data_accesses         85183331                       # Number of data accesses
system.cpu.dtb.walker.pwrStateResidencyTicks::UNDEFINED 883300402500                       # Cumulative time (in ticks) in various power states
system.cpu.dtb.stage2_mmu.stage2_tlb.walker.pwrStateResidencyTicks::UNDEFINED 883300402500                       # Cumulative time (in ticks) in various power states
system.cpu.dcache.pwrStateResidencyTicks::UNDEFINED 883300402500                       # Cumulative time (in ticks) in various power states
system.cpu.dcache.demand_hits::.cpu.data     65310479                       # number of demand (read+write) hits
system.cpu.dcache.demand_hits::total         65310479                       # number of demand (read+write) hits
system.cpu.dcache.overall_hits::.cpu.data     65310508                       # number of overall hits
system.cpu.dcache.overall_hits::total        65310508                       # number of overall hits
system.cpu.dcache.demand_misses::.cpu.data     21070242                       # number of demand (read+write) misses
system.cpu.dcache.demand_misses::total       21070242                       # number of demand (read+write) misses
system.cpu.dcache.overall_misses::.cpu.data     21070283                       # number of overall misses
system.cpu.dcache.overall_misses::total      21070283                       # number of overall misses
system.cpu.dcache.demand_miss_latency::.cpu.data 1676165887499                       # number of demand (read+write) miss cycles
system.cpu.dcache.demand_miss_latency::total 1676165887499                       # number of demand (read+write) miss cycles
system.cpu.dcache.overall_miss_latency::.cpu.data 1676165887499                       # number of overall miss cycles
system.cpu.dcache.overall_miss_latency::total 1676165887499                       # number of overall miss cycles
system.cpu.dcache.demand_accesses::.cpu.data     86380721                       # number of demand (read+write) accesses
system.cpu.dcache.demand_accesses::total     86380721                       # number of demand (read+write) accesses
system.cpu.dcache.overall_accesses::.cpu.data     86380791                       # number of overall (read+write) accesses
system.cpu.dcache.overall_accesses::total     86380791                       # number of overall (read+write) accesses
system.cpu.dcache.demand_miss_rate::.cpu.data     0.243923                       # miss rate for demand accesses
system.cpu.dcache.demand_miss_rate::total     0.243923                       # miss rate for demand accesses
system.cpu.dcache.overall_miss_rate::.cpu.data     0.243923                       # miss rate for overall accesses
system.cpu.dcache.overall_miss_rate::total     0.243923                       # miss rate for overall accesses
system.cpu.dcache.demand_avg_miss_latency::.cpu.data 79551.335362                       # average overall miss latency
system.cpu.dcache.demand_avg_miss_latency::total 79551.335362                       # average overall miss latency
system.cpu.dcache.overall_avg_miss_latency::.cpu.data 79551.180565                       # average overall miss latency
system.cpu.dcache.overall_avg_miss_latency::total 79551.180565                       # average overall miss latency
system.cpu.dcache.blocked_cycles::no_mshrs          125                       # number of cycles access was blocked
system.cpu.dcache.blocked_cycles::no_targets            0                       # number of cycles access was blocked
system.cpu.dcache.blocked::no_mshrs                 2                       # number of cycles access was blocked
system.cpu.dcache.blocked::no_targets               0                       # number of cycles access was blocked
system.cpu.dcache.avg_blocked_cycles::no_mshrs    62.500000                       # average number of cycles each access was blocked
system.cpu.dcache.avg_blocked_cycles::no_targets          nan                       # average number of cycles each access was blocked
system.cpu.dcache.writebacks::.writebacks     10533332                       # number of writebacks
system.cpu.dcache.writebacks::total          10533332                       # number of writebacks
system.cpu.dcache.demand_mshr_hits::.cpu.data     10520892                       # number of demand (read+write) MSHR hits
system.cpu.dcache.demand_mshr_hits::total     10520892                       # number of demand (read+write) MSHR hits
system.cpu.dcache.overall_mshr_hits::.cpu.data     10520892                       # number of overall MSHR hits
system.cpu.dcache.overall_mshr_hits::total     10520892                       # number of overall MSHR hits
system.cpu.dcache.demand_mshr_misses::.cpu.data     10549350                       # number of demand (read+write) MSHR misses
system.cpu.dcache.demand_mshr_misses::total     10549350                       # number of demand (read+write) MSHR misses
system.cpu.dcache.overall_mshr_misses::.cpu.data     10549391                       # number of overall MSHR misses
system.cpu.dcache.overall_mshr_misses::total     10549391                       # number of overall MSHR misses
system.cpu.dcache.demand_mshr_miss_latency::.cpu.data 828004716999                       # number of demand (read+write) MSHR miss cycles
system.cpu.dcache.demand_mshr_miss_latency::total 828004716999                       # number of demand (read+write) MSHR miss cycles
system.cpu.dcache.overall_mshr_miss_latency::.cpu.data 828008428499                       # number of overall MSHR miss cycles
system.cpu.dcache.overall_mshr_miss_latency::total 828008428499                       # number of overall MSHR miss cycles
system.cpu.dcache.demand_mshr_miss_rate::.cpu.data     0.122126                       # mshr miss rate for demand accesses
system.cpu.dcache.demand_mshr_miss_rate::total     0.122126                       # mshr miss rate for demand accesses
system.cpu.dcache.overall_mshr_miss_rate::.cpu.data     0.122127                       # mshr miss rate for overall accesses
system.cpu.dcache.overall_mshr_miss_rate::total     0.122127                       # mshr miss rate for overall accesses
system.cpu.dcache.demand_avg_mshr_miss_latency::.cpu.data 78488.695228                       # average overall mshr miss latency
system.cpu.dcache.demand_avg_mshr_miss_latency::total 78488.695228                       # average overall mshr miss latency
system.cpu.dcache.overall_avg_mshr_miss_latency::.cpu.data 78488.742004                       # average overall mshr miss latency
system.cpu.dcache.overall_avg_mshr_miss_latency::total 78488.742004                       # average overall mshr miss latency
system.cpu.dcache.replacements               10545295                       # number of replacements
system.cpu.dcache.ReadReq_hits::.cpu.data      2020502                       # number of ReadReq hits
system.cpu.dcache.ReadReq_hits::total         2020502                       # number of ReadReq hits
system.cpu.dcache.ReadReq_misses::.cpu.data        23575                       # number of ReadReq misses
system.cpu.dcache.ReadReq_misses::total         23575                       # number of ReadReq misses
system.cpu.dcache.ReadReq_miss_latency::.cpu.data    536186500                       # number of ReadReq miss cycles
system.cpu.dcache.ReadReq_miss_latency::total    536186500                       # number of ReadReq miss cycles
system.cpu.dcache.ReadReq_accesses::.cpu.data      2044077                       # number of ReadReq accesses(hits+misses)
system.cpu.dcache.ReadReq_accesses::total      2044077                       # number of ReadReq accesses(hits+misses)
system.cpu.dcache.ReadReq_miss_rate::.cpu.data     0.011533                       # miss rate for ReadReq accesses
system.cpu.dcache.ReadReq_miss_rate::total     0.011533                       # miss rate for ReadReq accesses
system.cpu.dcache.ReadReq_avg_miss_latency::.cpu.data 22743.860021                       # average ReadReq miss latency
system.cpu.dcache.ReadReq_avg_miss_latency::total 22743.860021                       # average ReadReq miss latency
system.cpu.dcache.ReadReq_mshr_hits::.cpu.data           26                       # number of ReadReq MSHR hits
system.cpu.dcache.ReadReq_mshr_hits::total           26                       # number of ReadReq MSHR hits
system.cpu.dcache.ReadReq_mshr_misses::.cpu.data        23549                       # number of ReadReq MSHR misses
system.cpu.dcache.ReadReq_mshr_misses::total        23549                       # number of ReadReq MSHR misses
system.cpu.dcache.ReadReq_mshr_miss_latency::.cpu.data    510826000                       # number of ReadReq MSHR miss cycles
system.cpu.dcache.ReadReq_mshr_miss_latency::total    510826000                       # number of ReadReq MSHR miss cycles
system.cpu.dcache.ReadReq_mshr_miss_rate::.cpu.data     0.011521                       # mshr miss rate for ReadReq accesses
system.cpu.dcache.ReadReq_mshr_miss_rate::total     0.011521                       # mshr miss rate for ReadReq accesses
system.cpu.dcache.ReadReq_avg_mshr_miss_latency::.cpu.data 21692.046371                       # average ReadReq mshr miss latency
system.cpu.dcache.ReadReq_avg_mshr_miss_latency::total 21692.046371                       # average ReadReq mshr miss latency
system.cpu.dcache.WriteReq_hits::.cpu.data     63289977                       # number of WriteReq hits
system.cpu.dcache.WriteReq_hits::total       63289977                       # number of WriteReq hits
system.cpu.dcache.WriteReq_misses::.cpu.data     21046667                       # number of WriteReq misses
system.cpu.dcache.WriteReq_misses::total     21046667                       # number of WriteReq misses
system.cpu.dcache.WriteReq_miss_latency::.cpu.data 1675629700999                       # number of WriteReq miss cycles
system.cpu.dcache.WriteReq_miss_latency::total 1675629700999                       # number of WriteReq miss cycles
system.cpu.dcache.WriteReq_accesses::.cpu.data     84336644                       # number of WriteReq accesses(hits+misses)
system.cpu.dcache.WriteReq_accesses::total     84336644                       # number of WriteReq accesses(hits+misses)
system.cpu.dcache.WriteReq_miss_rate::.cpu.data     0.249555                       # miss rate for WriteReq accesses
system.cpu.dcache.WriteReq_miss_rate::total     0.249555                       # miss rate for WriteReq accesses
system.cpu.dcache.WriteReq_avg_miss_latency::.cpu.data 79614.967111                       # average WriteReq miss latency
system.cpu.dcache.WriteReq_avg_miss_latency::total 79614.967111                       # average WriteReq miss latency
system.cpu.dcache.WriteReq_mshr_hits::.cpu.data     10520866                       # number of WriteReq MSHR hits
system.cpu.dcache.WriteReq_mshr_hits::total     10520866                       # number of WriteReq MSHR hits
system.cpu.dcache.WriteReq_mshr_misses::.cpu.data     10525801                       # number of WriteReq MSHR misses
system.cpu.dcache.WriteReq_mshr_misses::total     10525801                       # number of WriteReq MSHR misses
system.cpu.dcache.WriteReq_mshr_miss_latency::.cpu.data 827493890999                       # number of WriteReq MSHR miss cycles
system.cpu.dcache.WriteReq_mshr_miss_latency::total 827493890999                       # number of WriteReq MSHR miss cycles
system.cpu.dcache.WriteReq_mshr_miss_rate::.cpu.data     0.124807                       # mshr miss rate for WriteReq accesses
system.cpu.dcache.WriteReq_mshr_miss_rate::total     0.124807                       # mshr miss rate for WriteReq accesses
system.cpu.dcache.WriteReq_avg_mshr_miss_latency::.cpu.data 78615.764349                       # average WriteReq mshr miss latency
system.cpu.dcache.WriteReq_avg_mshr_miss_latency::total 78615.764349                       # average WriteReq mshr miss latency
system.cpu.dcache.SoftPFReq_hits::.cpu.data           29                       # number of SoftPFReq hits
system.cpu.dcache.SoftPFReq_hits::total            29                       # number of SoftPFReq hits
system.cpu.dcache.SoftPFReq_misses::.cpu.data           41                       # number of SoftPFReq misses
system.cpu.dcache.SoftPFReq_misses::total           41                       # number of SoftPFReq misses
system.cpu.dcache.SoftPFReq_accesses::.cpu.data           70                       # number of SoftPFReq accesses(hits+misses)
system.cpu.dcache.SoftPFReq_accesses::total           70                       # number of SoftPFReq accesses(hits+misses)
system.cpu.dcache.SoftPFReq_miss_rate::.cpu.data     0.585714                       # miss rate for SoftPFReq accesses
system.cpu.dcache.SoftPFReq_miss_rate::total     0.585714                       # miss rate for SoftPFReq accesses
system.cpu.dcache.SoftPFReq_mshr_misses::.cpu.data           41                       # number of SoftPFReq MSHR misses
system.cpu.dcache.SoftPFReq_mshr_misses::total           41                       # number of SoftPFReq MSHR misses
system.cpu.dcache.SoftPFReq_mshr_miss_latency::.cpu.data      3711500                       # number of SoftPFReq MSHR miss cycles
system.cpu.dcache.SoftPFReq_mshr_miss_latency::total      3711500                       # number of SoftPFReq MSHR miss cycles
system.cpu.dcache.SoftPFReq_mshr_miss_rate::.cpu.data     0.585714                       # mshr miss rate for SoftPFReq accesses
system.cpu.dcache.SoftPFReq_mshr_miss_rate::total     0.585714                       # mshr miss rate for SoftPFReq accesses
system.cpu.dcache.SoftPFReq_avg_mshr_miss_latency::.cpu.data 90524.390244                       # average SoftPFReq mshr miss latency
system.cpu.dcache.SoftPFReq_avg_mshr_miss_latency::total 90524.390244                       # average SoftPFReq mshr miss latency
system.cpu.dcache.LoadLockedReq_hits::.cpu.data           33                       # number of LoadLockedReq hits
system.cpu.dcache.LoadLockedReq_hits::total           33                       # number of LoadLockedReq hits
system.cpu.dcache.LoadLockedReq_misses::.cpu.data            1                       # number of LoadLockedReq misses
system.cpu.dcache.LoadLockedReq_misses::total            1                       # number of LoadLockedReq misses
system.cpu.dcache.LoadLockedReq_miss_latency::.cpu.data        86500                       # number of LoadLockedReq miss cycles
system.cpu.dcache.LoadLockedReq_miss_latency::total        86500                       # number of LoadLockedReq miss cycles
system.cpu.dcache.LoadLockedReq_accesses::.cpu.data           34                       # number of LoadLockedReq accesses(hits+misses)
system.cpu.dcache.LoadLockedReq_accesses::total           34                       # number of LoadLockedReq accesses(hits+misses)
system.cpu.dcache.LoadLockedReq_miss_rate::.cpu.data     0.029412                       # miss rate for LoadLockedReq accesses
system.cpu.dcache.LoadLockedReq_miss_rate::total     0.029412                       # miss rate for LoadLockedReq accesses
system.cpu.dcache.LoadLockedReq_avg_miss_latency::.cpu.data        86500                       # average LoadLockedReq miss latency
system.cpu.dcache.LoadLockedReq_avg_miss_latency::total        86500                       # average LoadLockedReq miss latency
system.cpu.dcache.LoadLockedReq_mshr_misses::.cpu.data            1                       # number of LoadLockedReq MSHR misses
system.cpu.dcache.LoadLockedReq_mshr_misses::total            1                       # number of LoadLockedReq MSHR misses
system.cpu.dcache.LoadLockedReq_mshr_miss_latency::.cpu.data        85500                       # number of LoadLockedReq MSHR miss cycles
system.cpu.dcache.LoadLockedReq_mshr_miss_latency::total        85500                       # number of LoadLockedReq MSHR miss cycles
system.cpu.dcache.LoadLockedReq_mshr_miss_rate::.cpu.data     0.029412                       # mshr miss rate for LoadLockedReq accesses
system.cpu.dcache.LoadLockedReq_mshr_miss_rate::total     0.029412                       # mshr miss rate for LoadLockedReq accesses
system.cpu.dcache.LoadLockedReq_avg_mshr_miss_latency::.cpu.data        85500                       # average LoadLockedReq mshr miss latency
system.cpu.dcache.LoadLockedReq_avg_mshr_miss_latency::total        85500                       # average LoadLockedReq mshr miss latency
system.cpu.dcache.StoreCondReq_hits::.cpu.data           34                       # number of StoreCondReq hits
system.cpu.dcache.StoreCondReq_hits::total           34                       # number of StoreCondReq hits
system.cpu.dcache.StoreCondReq_accesses::.cpu.data           34                       # number of StoreCondReq accesses(hits+misses)
system.cpu.dcache.StoreCondReq_accesses::total           34                       # number of StoreCondReq accesses(hits+misses)
system.cpu.dcache.tags.pwrStateResidencyTicks::UNDEFINED 883300402500                       # Cumulative time (in ticks) in various power states
system.cpu.dcache.tags.tagsinuse          4090.348323                       # Cycle average of tags in use
system.cpu.dcache.tags.total_refs            75859966                       # Total number of references to valid blocks.
system.cpu.dcache.tags.sampled_refs          10549391                       # Sample count of references to valid blocks.
system.cpu.dcache.tags.avg_refs              7.190933                       # Average number of references to valid blocks.
system.cpu.dcache.tags.warmup_cycle            176500                       # Cycle when the warmup percentage was hit.
system.cpu.dcache.tags.occ_blocks::.cpu.data  4090.348323                       # Average occupied blocks per requestor
system.cpu.dcache.tags.occ_percent::.cpu.data     0.998620                       # Average percentage of cache occupancy
system.cpu.dcache.tags.occ_percent::total     0.998620                       # Average percentage of cache occupancy
system.cpu.dcache.tags.occ_task_id_blocks::1024         4096                       # Occupied blocks per task id
system.cpu.dcache.tags.age_task_id_blocks_1024::0          120                       # Occupied blocks per task id
system.cpu.dcache.tags.age_task_id_blocks_1024::1         1074                       # Occupied blocks per task id
system.cpu.dcache.tags.age_task_id_blocks_1024::2         2902                       # Occupied blocks per task id
system.cpu.dcache.tags.occ_task_id_percent::1024            1                       # Percentage of cache occupancy per task id
system.cpu.dcache.tags.tag_accesses          96930250                       # Number of tag accesses
system.cpu.dcache.tags.data_accesses         96930250                       # Number of data accesses
system.cpu.itb.walker.pwrStateResidencyTicks::UNDEFINED 883300402500                       # Cumulative time (in ticks) in various power states
system.cpu.itb.stage2_mmu.stage2_tlb.walker.pwrStateResidencyTicks::UNDEFINED 883300402500                       # Cumulative time (in ticks) in various power states

---------- End Simulation Statistics   ----------
