
---------- Begin Simulation Statistics ----------
final_tick                               987140629653                       # Number of ticks from beginning of simulation (restored from checkpoints and never reset)
host_inst_rate                                 151289                       # Simulator instruction rate (inst/s)
host_mem_usage                                 694844                       # Number of bytes of host memory used
host_op_rate                                   278637                       # Simulator op (including micro ops) rate (op/s)
host_seconds                                   660.99                       # Real time elapsed on the host
host_tick_rate                             1493438402                       # Simulator tick rate (ticks/s)
sim_freq                                 1000000000000                       # Frequency of simulated ticks
sim_insts                                   100000000                       # Number of instructions simulated
sim_ops                                     184174857                       # Number of ops (including micro ops) simulated
sim_seconds                                  0.987141                       # Number of seconds simulated
sim_ticks                                987140629653                       # Number of ticks simulated
system.cpu.branchPred.BTBCorrect                    0                       # Number of correct BTB predictions (this stat may not work properly.
system.cpu.branchPred.BTBHitPct             99.959433                       # BTB Hit Percentage
system.cpu.branchPred.BTBHits                10561026                       # Number of BTB hits
system.cpu.branchPred.BTBLookups             10565312                       # Number of BTB lookups
system.cpu.branchPred.RASInCorrect                  5                       # Number of incorrect RAS predictions.
system.cpu.branchPred.condIncorrect              1454                       # Number of conditional branches incorrect
system.cpu.branchPred.condPredicted          10561903                       # Number of conditional branches predicted
system.cpu.branchPred.indirectHits                 26                       # Number of indirect target hits.
system.cpu.branchPred.indirectLookups             202                       # Number of indirect predictor lookups.
system.cpu.branchPred.indirectMisses              176                       # Number of indirect misses.
system.cpu.branchPred.lookups                10569955                       # Number of BP lookups
system.cpu.branchPred.usedRAS                    2689                       # Number of times the RAS was used to get a target.
system.cpu.branchPredindirectMispredicted          100                       # Number of mispredicted indirect branches.
system.cpu.committedInsts                   100000000                       # Number of instructions committed
system.cpu.committedOps                     184174857                       # Number of ops (including micro ops) committed
system.cpu.cpi                              14.799710                       # CPI: cycles per instruction
system.cpu.discardedOps                          4246                       # Number of ops (including micro ops) which were discarded before commit
system.cpu.dtb.accesses                             0                       # DTB accesses
system.cpu.dtb.align_faults                         0                       # Number of TLB faults due to alignment restrictions
system.cpu.dtb.domain_faults                        0                       # Number of TLB faults due to domain restrictions
system.cpu.dtb.flush_entries                        0                       # Number of entries that have been flushed from TLB
system.cpu.dtb.flush_tlb                            0                       # Number of times complete TLB was flushed
system.cpu.dtb.flush_tlb_asid                       0                       # Number of times TLB was flushed by ASID
system.cpu.dtb.flush_tlb_mva                        0                       # Number of times TLB was flushed by MVA
system.cpu.dtb.flush_tlb_mva_asid                   0                       # Number of times TLB was flushed by MVA & ASID
system.cpu.dtb.hits                                 0                       # DTB hits
system.cpu.dtb.inst_accesses                        0                       # ITB inst accesses
system.cpu.dtb.inst_hits                            0                       # ITB inst hits
system.cpu.dtb.inst_misses                          0                       # ITB inst misses
system.cpu.dtb.misses                               0                       # DTB misses
system.cpu.dtb.perms_faults                         0                       # Number of TLB faults due to permissions restrictions
system.cpu.dtb.prefetch_faults                      0                       # Number of TLB faults due to prefetch
system.cpu.dtb.read_accesses                        0                       # DTB read accesses
system.cpu.dtb.read_hits                            0                       # DTB read hits
system.cpu.dtb.read_misses                          0                       # DTB read misses
system.cpu.dtb.stage2_mmu.stage2_tlb.accesses            0                       # DTB accesses
system.cpu.dtb.stage2_mmu.stage2_tlb.align_faults            0                       # Number of TLB faults due to alignment restrictions
system.cpu.dtb.stage2_mmu.stage2_tlb.domain_faults            0                       # Number of TLB faults due to domain restrictions
system.cpu.dtb.stage2_mmu.stage2_tlb.flush_entries            0                       # Number of entries that have been flushed from TLB
system.cpu.dtb.stage2_mmu.stage2_tlb.flush_tlb            0                       # Number of times complete TLB was flushed
system.cpu.dtb.stage2_mmu.stage2_tlb.flush_tlb_asid            0                       # Number of times TLB was flushed by ASID
system.cpu.dtb.stage2_mmu.stage2_tlb.flush_tlb_mva            0                       # Number of times TLB was flushed by MVA
system.cpu.dtb.stage2_mmu.stage2_tlb.flush_tlb_mva_asid            0                       # Number of times TLB was flushed by MVA & ASID
system.cpu.dtb.stage2_mmu.stage2_tlb.hits            0                       # DTB hits
system.cpu.dtb.stage2_mmu.stage2_tlb.inst_accesses            0                       # ITB inst accesses
system.cpu.dtb.stage2_mmu.stage2_tlb.inst_hits            0                       # ITB inst hits
system.cpu.dtb.stage2_mmu.stage2_tlb.inst_misses            0                       # ITB inst misses
system.cpu.dtb.stage2_mmu.stage2_tlb.misses            0                       # DTB misses
system.cpu.dtb.stage2_mmu.stage2_tlb.perms_faults            0                       # Number of TLB faults due to permissions restrictions
system.cpu.dtb.stage2_mmu.stage2_tlb.prefetch_faults            0                       # Number of TLB faults due to prefetch
system.cpu.dtb.stage2_mmu.stage2_tlb.read_accesses            0                       # DTB read accesses
system.cpu.dtb.stage2_mmu.stage2_tlb.read_hits            0                       # DTB read hits
system.cpu.dtb.stage2_mmu.stage2_tlb.read_misses            0                       # DTB read misses
system.cpu.dtb.stage2_mmu.stage2_tlb.walker.walkRequestOrigin_Requested::Data            0                       # Table walker requests started/completed, data/inst
system.cpu.dtb.stage2_mmu.stage2_tlb.walker.walkRequestOrigin_Requested::Inst            0                       # Table walker requests started/completed, data/inst
system.cpu.dtb.stage2_mmu.stage2_tlb.walker.walkRequestOrigin_Requested::total            0                       # Table walker requests started/completed, data/inst
system.cpu.dtb.stage2_mmu.stage2_tlb.walker.walkRequestOrigin_Completed::Data            0                       # Table walker requests started/completed, data/inst
system.cpu.dtb.stage2_mmu.stage2_tlb.walker.walkRequestOrigin_Completed::Inst            0                       # Table walker requests started/completed, data/inst
system.cpu.dtb.stage2_mmu.stage2_tlb.walker.walkRequestOrigin_Completed::total            0                       # Table walker requests started/completed, data/inst
system.cpu.dtb.stage2_mmu.stage2_tlb.walker.walkRequestOrigin::total            0                       # Table walker requests started/completed, data/inst
system.cpu.dtb.stage2_mmu.stage2_tlb.walker.walks            0                       # Table walker walks requested
system.cpu.dtb.stage2_mmu.stage2_tlb.write_accesses            0                       # DTB write accesses
system.cpu.dtb.stage2_mmu.stage2_tlb.write_hits            0                       # DTB write hits
system.cpu.dtb.stage2_mmu.stage2_tlb.write_misses            0                       # DTB write misses
system.cpu.dtb.walker.walkRequestOrigin_Requested::Data            0                       # Table walker requests started/completed, data/inst
system.cpu.dtb.walker.walkRequestOrigin_Requested::Inst            0                       # Table walker requests started/completed, data/inst
system.cpu.dtb.walker.walkRequestOrigin_Requested::total            0                       # Table walker requests started/completed, data/inst
system.cpu.dtb.walker.walkRequestOrigin_Completed::Data            0                       # Table walker requests started/completed, data/inst
system.cpu.dtb.walker.walkRequestOrigin_Completed::Inst            0                       # Table walker requests started/completed, data/inst
system.cpu.dtb.walker.walkRequestOrigin_Completed::total            0                       # Table walker requests started/completed, data/inst
system.cpu.dtb.walker.walkRequestOrigin::total            0                       # Table walker requests started/completed, data/inst
system.cpu.dtb.walker.walks                         0                       # Table walker walks requested
system.cpu.dtb.write_accesses                       0                       # DTB write accesses
system.cpu.dtb.write_hits                           0                       # DTB write hits
system.cpu.dtb.write_misses                         0                       # DTB write misses
system.cpu.fetch2.amo_instructions                  0                       # Number of memory atomic instructions successfully decoded
system.cpu.fetch2.fp_instructions                   0                       # Number of floating point instructions successfully decoded
system.cpu.fetch2.int_instructions           44894220                       # Number of integer instructions successfully decoded
system.cpu.fetch2.load_instructions           2086077                       # Number of memory load instructions successfully decoded
system.cpu.fetch2.store_instructions           168928                       # Number of memory store instructions successfully decoded
system.cpu.fetch2.vec_instructions                  0                       # Number of SIMD instructions successfully decoded
system.cpu.idleCycles                      1221891198                       # Total number of cycles that the object has spent stopped
system.cpu.ipc                               0.067569                       # IPC: instructions per cycle
system.cpu.itb.accesses                             0                       # DTB accesses
system.cpu.itb.align_faults                         0                       # Number of TLB faults due to alignment restrictions
system.cpu.itb.domain_faults                        0                       # Number of TLB faults due to domain restrictions
system.cpu.itb.flush_entries                        0                       # Number of entries that have been flushed from TLB
system.cpu.itb.flush_tlb                            0                       # Number of times complete TLB was flushed
system.cpu.itb.flush_tlb_asid                       0                       # Number of times TLB was flushed by ASID
system.cpu.itb.flush_tlb_mva                        0                       # Number of times TLB was flushed by MVA
system.cpu.itb.flush_tlb_mva_asid                   0                       # Number of times TLB was flushed by MVA & ASID
system.cpu.itb.hits                                 0                       # DTB hits
system.cpu.itb.inst_accesses                        0                       # ITB inst accesses
system.cpu.itb.inst_hits                            0                       # ITB inst hits
system.cpu.itb.inst_misses                          0                       # ITB inst misses
system.cpu.itb.misses                               0                       # DTB misses
system.cpu.itb.perms_faults                         0                       # Number of TLB faults due to permissions restrictions
system.cpu.itb.prefetch_faults                      0                       # Number of TLB faults due to prefetch
system.cpu.itb.read_accesses                        0                       # DTB read accesses
system.cpu.itb.read_hits                            0                       # DTB read hits
system.cpu.itb.read_misses                          0                       # DTB read misses
system.cpu.itb.stage2_mmu.stage2_tlb.accesses            0                       # DTB accesses
system.cpu.itb.stage2_mmu.stage2_tlb.align_faults            0                       # Number of TLB faults due to alignment restrictions
system.cpu.itb.stage2_mmu.stage2_tlb.domain_faults            0                       # Number of TLB faults due to domain restrictions
system.cpu.itb.stage2_mmu.stage2_tlb.flush_entries            0                       # Number of entries that have been flushed from TLB
system.cpu.itb.stage2_mmu.stage2_tlb.flush_tlb            0                       # Number of times complete TLB was flushed
system.cpu.itb.stage2_mmu.stage2_tlb.flush_tlb_asid            0                       # Number of times TLB was flushed by ASID
system.cpu.itb.stage2_mmu.stage2_tlb.flush_tlb_mva            0                       # Number of times TLB was flushed by MVA
system.cpu.itb.stage2_mmu.stage2_tlb.flush_tlb_mva_asid            0                       # Number of times TLB was flushed by MVA & ASID
system.cpu.itb.stage2_mmu.stage2_tlb.hits            0                       # DTB hits
system.cpu.itb.stage2_mmu.stage2_tlb.inst_accesses            0                       # ITB inst accesses
system.cpu.itb.stage2_mmu.stage2_tlb.inst_hits            0                       # ITB inst hits
system.cpu.itb.stage2_mmu.stage2_tlb.inst_misses            0                       # ITB inst misses
system.cpu.itb.stage2_mmu.stage2_tlb.misses            0                       # DTB misses
system.cpu.itb.stage2_mmu.stage2_tlb.perms_faults            0                       # Number of TLB faults due to permissions restrictions
system.cpu.itb.stage2_mmu.stage2_tlb.prefetch_faults            0                       # Number of TLB faults due to prefetch
system.cpu.itb.stage2_mmu.stage2_tlb.read_accesses            0                       # DTB read accesses
system.cpu.itb.stage2_mmu.stage2_tlb.read_hits            0                       # DTB read hits
system.cpu.itb.stage2_mmu.stage2_tlb.read_misses            0                       # DTB read misses
system.cpu.itb.stage2_mmu.stage2_tlb.walker.walkRequestOrigin_Requested::Data            0                       # Table walker requests started/completed, data/inst
system.cpu.itb.stage2_mmu.stage2_tlb.walker.walkRequestOrigin_Requested::Inst            0                       # Table walker requests started/completed, data/inst
system.cpu.itb.stage2_mmu.stage2_tlb.walker.walkRequestOrigin_Requested::total            0                       # Table walker requests started/completed, data/inst
system.cpu.itb.stage2_mmu.stage2_tlb.walker.walkRequestOrigin_Completed::Data            0                       # Table walker requests started/completed, data/inst
system.cpu.itb.stage2_mmu.stage2_tlb.walker.walkRequestOrigin_Completed::Inst            0                       # Table walker requests started/completed, data/inst
system.cpu.itb.stage2_mmu.stage2_tlb.walker.walkRequestOrigin_Completed::total            0                       # Table walker requests started/completed, data/inst
system.cpu.itb.stage2_mmu.stage2_tlb.walker.walkRequestOrigin::total            0                       # Table walker requests started/completed, data/inst
system.cpu.itb.stage2_mmu.stage2_tlb.walker.walks            0                       # Table walker walks requested
system.cpu.itb.stage2_mmu.stage2_tlb.write_accesses            0                       # DTB write accesses
system.cpu.itb.stage2_mmu.stage2_tlb.write_hits            0                       # DTB write hits
system.cpu.itb.stage2_mmu.stage2_tlb.write_misses            0                       # DTB write misses
system.cpu.itb.walker.walkRequestOrigin_Requested::Data            0                       # Table walker requests started/completed, data/inst
system.cpu.itb.walker.walkRequestOrigin_Requested::Inst            0                       # Table walker requests started/completed, data/inst
system.cpu.itb.walker.walkRequestOrigin_Requested::total            0                       # Table walker requests started/completed, data/inst
system.cpu.itb.walker.walkRequestOrigin_Completed::Data            0                       # Table walker requests started/completed, data/inst
system.cpu.itb.walker.walkRequestOrigin_Completed::Inst            0                       # Table walker requests started/completed, data/inst
system.cpu.itb.walker.walkRequestOrigin_Completed::total            0                       # Table walker requests started/completed, data/inst
system.cpu.itb.walker.walkRequestOrigin::total            0                       # Table walker requests started/completed, data/inst
system.cpu.itb.walker.walks                         0                       # Table walker walks requested
system.cpu.itb.write_accesses                       0                       # DTB write accesses
system.cpu.itb.write_hits                           0                       # DTB write hits
system.cpu.itb.write_misses                         0                       # DTB write misses
system.cpu.numCycles                       1479970959                       # number of cpu cycles simulated
system.cpu.numFetchSuspends                         0                       # Number of times Execute suspended instruction fetching
system.cpu.numWorkItemsCompleted                    0                       # number of work items this cpu completed
system.cpu.numWorkItemsStarted                      0                       # number of work items this cpu started
system.cpu.op_class_0::No_OpClass                   0      0.00%      0.00% # Class of committed instruction
system.cpu.op_class_0::IntAlu                97640483     53.02%     53.02% # Class of committed instruction
system.cpu.op_class_0::IntMult                 114699      0.06%     53.08% # Class of committed instruction
system.cpu.op_class_0::IntDiv                       0      0.00%     53.08% # Class of committed instruction
system.cpu.op_class_0::FloatAdd                     0      0.00%     53.08% # Class of committed instruction
system.cpu.op_class_0::FloatCmp                     0      0.00%     53.08% # Class of committed instruction
system.cpu.op_class_0::FloatCvt                     0      0.00%     53.08% # Class of committed instruction
system.cpu.op_class_0::FloatMult                    0      0.00%     53.08% # Class of committed instruction
system.cpu.op_class_0::FloatMultAcc                 0      0.00%     53.08% # Class of committed instruction
system.cpu.op_class_0::FloatDiv                     0      0.00%     53.08% # Class of committed instruction
system.cpu.op_class_0::FloatMisc                    0      0.00%     53.08% # Class of committed instruction
system.cpu.op_class_0::FloatSqrt                    0      0.00%     53.08% # Class of committed instruction
system.cpu.op_class_0::SimdAdd                      8      0.00%     53.08% # Class of committed instruction
system.cpu.op_class_0::SimdAddAcc                   0      0.00%     53.08% # Class of committed instruction
system.cpu.op_class_0::SimdAlu                      8      0.00%     53.08% # Class of committed instruction
system.cpu.op_class_0::SimdCmp                      6      0.00%     53.08% # Class of committed instruction
system.cpu.op_class_0::SimdCvt                      0      0.00%     53.08% # Class of committed instruction
system.cpu.op_class_0::SimdMisc                     1      0.00%     53.08% # Class of committed instruction
system.cpu.op_class_0::SimdMult                     0      0.00%     53.08% # Class of committed instruction
system.cpu.op_class_0::SimdMultAcc                  0      0.00%     53.08% # Class of committed instruction
system.cpu.op_class_0::SimdShift                    0      0.00%     53.08% # Class of committed instruction
system.cpu.op_class_0::SimdShiftAcc                 0      0.00%     53.08% # Class of committed instruction
system.cpu.op_class_0::SimdDiv                      0      0.00%     53.08% # Class of committed instruction
system.cpu.op_class_0::SimdSqrt                     0      0.00%     53.08% # Class of committed instruction
system.cpu.op_class_0::SimdFloatAdd                 0      0.00%     53.08% # Class of committed instruction
system.cpu.op_class_0::SimdFloatAlu                 0      0.00%     53.08% # Class of committed instruction
system.cpu.op_class_0::SimdFloatCmp                 0      0.00%     53.08% # Class of committed instruction
system.cpu.op_class_0::SimdFloatCvt                 0      0.00%     53.08% # Class of committed instruction
system.cpu.op_class_0::SimdFloatDiv                 0      0.00%     53.08% # Class of committed instruction
system.cpu.op_class_0::SimdFloatMisc               23      0.00%     53.08% # Class of committed instruction
system.cpu.op_class_0::SimdFloatMult                0      0.00%     53.08% # Class of committed instruction
system.cpu.op_class_0::SimdFloatMultAcc             0      0.00%     53.08% # Class of committed instruction
system.cpu.op_class_0::SimdFloatSqrt                0      0.00%     53.08% # Class of committed instruction
system.cpu.op_class_0::SimdReduceAdd                0      0.00%     53.08% # Class of committed instruction
system.cpu.op_class_0::SimdReduceAlu                0      0.00%     53.08% # Class of committed instruction
system.cpu.op_class_0::SimdReduceCmp                0      0.00%     53.08% # Class of committed instruction
system.cpu.op_class_0::SimdFloatReduceAdd            0      0.00%     53.08% # Class of committed instruction
system.cpu.op_class_0::SimdFloatReduceCmp            0      0.00%     53.08% # Class of committed instruction
system.cpu.op_class_0::SimdAes                      0      0.00%     53.08% # Class of committed instruction
system.cpu.op_class_0::SimdAesMix                   0      0.00%     53.08% # Class of committed instruction
system.cpu.op_class_0::SimdSha1Hash                 0      0.00%     53.08% # Class of committed instruction
system.cpu.op_class_0::SimdSha1Hash2                0      0.00%     53.08% # Class of committed instruction
system.cpu.op_class_0::SimdSha256Hash               0      0.00%     53.08% # Class of committed instruction
system.cpu.op_class_0::SimdSha256Hash2              0      0.00%     53.08% # Class of committed instruction
system.cpu.op_class_0::SimdShaSigma2                0      0.00%     53.08% # Class of committed instruction
system.cpu.op_class_0::SimdShaSigma3                0      0.00%     53.08% # Class of committed instruction
system.cpu.op_class_0::SimdPredAlu                  0      0.00%     53.08% # Class of committed instruction
system.cpu.op_class_0::MemRead                2082677      1.13%     54.21% # Class of committed instruction
system.cpu.op_class_0::MemWrite              84336952     45.79%    100.00% # Class of committed instruction
system.cpu.op_class_0::FloatMemRead                 0      0.00%    100.00% # Class of committed instruction
system.cpu.op_class_0::FloatMemWrite                0      0.00%    100.00% # Class of committed instruction
system.cpu.op_class_0::IprAccess                    0      0.00%    100.00% # Class of committed instruction
system.cpu.op_class_0::InstPrefetch                 0      0.00%    100.00% # Class of committed instruction
system.cpu.op_class_0::total                184174857                       # Class of committed instruction
system.cpu.tickCycles                       258079761                       # Number of cycles that the object actually ticked
system.cpu.workload.numSyscalls                    18                       # Number of system calls
system.membus.snoop_filter.hit_multi_requests            0                       # Number of requests hitting in the snoop filter with multiple (>1) holders of the requested data.
system.membus.snoop_filter.hit_multi_snoops            0                       # Number of snoops hitting in the snoop filter with multiple (>1) holders of the requested data.
system.membus.snoop_filter.hit_single_requests     10493334                       # Number of requests hitting in the snoop filter with a single holder of the requested data.
system.membus.snoop_filter.hit_single_snoops            0                       # Number of snoops hitting in the snoop filter with a single holder of the requested data.
system.membus.snoop_filter.tot_requests      21020357                       # Total number of requests made to the snoop filter.
system.membus.snoop_filter.tot_snoops               0                       # Total number of snoops made to the snoop filter.
system.tol2bus.snoop_filter.hit_multi_requests          128                       # Number of requests hitting in the snoop filter with multiple (>1) holders of the requested data.
system.tol2bus.snoop_filter.hit_multi_snoops            0                       # Number of snoops hitting in the snoop filter with multiple (>1) holders of the requested data.
system.tol2bus.snoop_filter.hit_single_requests     10548678                       # Number of requests hitting in the snoop filter with a single holder of the requested data.
system.tol2bus.snoop_filter.hit_single_snoops          943                       # Number of snoops hitting in the snoop filter with a single holder of the requested data.
system.tol2bus.snoop_filter.tot_requests     21100337                       # Total number of requests made to the snoop filter.
system.tol2bus.snoop_filter.tot_snoops            943                       # Total number of snoops made to the snoop filter.
system.membus.pwrStateResidencyTicks::UNDEFINED 987140629653                       # Cumulative time (in ticks) in various power states
system.membus.trans_dist::ReadResp               1316                       # Transaction distribution
system.membus.trans_dist::WritebackDirty     10492989                       # Transaction distribution
system.membus.trans_dist::CleanEvict              334                       # Transaction distribution
system.membus.trans_dist::ReadExReq          10525717                       # Transaction distribution
system.membus.trans_dist::ReadExResp         10525717                       # Transaction distribution
system.membus.trans_dist::ReadSharedReq          1316                       # Transaction distribution
system.membus.trans_dist::InvalidateReq             1                       # Transaction distribution
system.membus.pkt_count_system.l2.mem_side::system.mem_ctrls.port     31547390                       # Packet count per connected master and slave (bytes)
system.membus.pkt_count::total               31547390                       # Packet count per connected master and slave (bytes)
system.membus.pkt_size_system.l2.mem_side::system.mem_ctrls.port    672640704                       # Cumulative packet size per connected master and slave (bytes)
system.membus.pkt_size::total               672640704                       # Cumulative packet size per connected master and slave (bytes)
system.membus.snoops                                0                       # Total snoops (count)
system.membus.snoopTraffic                          0                       # Total snoop traffic (bytes)
system.membus.snoop_fanout::samples          10527034                       # Request fanout histogram
system.membus.snoop_fanout::mean                    0                       # Request fanout histogram
system.membus.snoop_fanout::stdev                   0                       # Request fanout histogram
system.membus.snoop_fanout::underflows              0      0.00%      0.00% # Request fanout histogram
system.membus.snoop_fanout::0                10527034    100.00%    100.00% # Request fanout histogram
system.membus.snoop_fanout::1                       0      0.00%    100.00% # Request fanout histogram
system.membus.snoop_fanout::overflows               0      0.00%    100.00% # Request fanout histogram
system.membus.snoop_fanout::min_value               0                       # Request fanout histogram
system.membus.snoop_fanout::max_value               0                       # Request fanout histogram
system.membus.snoop_fanout::total            10527034                       # Request fanout histogram
system.membus.respLayer1.occupancy        34467495821                       # Layer occupancy (ticks)
system.membus.respLayer1.utilization              3.5                       # Layer utilization (%)
system.membus.reqLayer0.occupancy         52352228158                       # Layer occupancy (ticks)
system.membus.reqLayer0.utilization               5.3                       # Layer utilization (%)
system.tol2bus.pwrStateResidencyTicks::UNDEFINED 987140629653                       # Cumulative time (in ticks) in various power states
system.tol2bus.trans_dist::ReadResp             25231                       # Transaction distribution
system.tol2bus.trans_dist::WritebackDirty     21029048                       # Transaction distribution
system.tol2bus.trans_dist::CleanEvict           13896                       # Transaction distribution
system.tol2bus.trans_dist::ReadExReq         10526426                       # Transaction distribution
system.tol2bus.trans_dist::ReadExResp        10526425                       # Transaction distribution
system.tol2bus.trans_dist::ReadCleanReq           932                       # Transaction distribution
system.tol2bus.trans_dist::ReadSharedReq        24299                       # Transaction distribution
system.tol2bus.trans_dist::InvalidateReq            2                       # Transaction distribution
system.tol2bus.trans_dist::InvalidateResp            2                       # Transaction distribution
system.tol2bus.pkt_count_system.cpu.icache.mem_side::system.l2.cpu_side         1864                       # Packet count per connected master and slave (bytes)
system.tol2bus.pkt_count_system.cpu.dcache.mem_side::system.l2.cpu_side     31650131                       # Packet count per connected master and slave (bytes)
system.tol2bus.pkt_count::total              31651995                       # Packet count per connected master and slave (bytes)
system.tol2bus.pkt_size_system.cpu.icache.mem_side::system.l2.cpu_side        29824                       # Cumulative packet size per connected master and slave (bytes)
system.tol2bus.pkt_size_system.cpu.dcache.mem_side::system.l2.cpu_side    674777056                       # Cumulative packet size per connected master and slave (bytes)
system.tol2bus.pkt_size::total              674806880                       # Cumulative packet size per connected master and slave (bytes)
system.tol2bus.snoops                        10494266                       # Total snoops (count)
system.tol2bus.snoopTraffic                 335775648                       # Total snoop traffic (bytes)
system.tol2bus.snoop_fanout::samples         21045925                       # Request fanout histogram
system.tol2bus.snoop_fanout::mean            0.000051                       # Request fanout histogram
system.tol2bus.snoop_fanout::stdev           0.007133                       # Request fanout histogram
system.tol2bus.snoop_fanout::underflows             0      0.00%      0.00% # Request fanout histogram
system.tol2bus.snoop_fanout::0               21044854     99.99%     99.99% # Request fanout histogram
system.tol2bus.snoop_fanout::1                   1071      0.01%    100.00% # Request fanout histogram
system.tol2bus.snoop_fanout::2                      0      0.00%    100.00% # Request fanout histogram
system.tol2bus.snoop_fanout::overflows              0      0.00%    100.00% # Request fanout histogram
system.tol2bus.snoop_fanout::min_value              0                       # Request fanout histogram
system.tol2bus.snoop_fanout::max_value              1                       # Request fanout histogram
system.tol2bus.snoop_fanout::total           21045925                       # Request fanout histogram
system.tol2bus.reqLayer0.occupancy        21101476132                       # Layer occupancy (ticks)
system.tol2bus.reqLayer0.utilization              2.1                       # Layer utilization (%)
system.tol2bus.respLayer1.occupancy       14074668482                       # Layer occupancy (ticks)
system.tol2bus.respLayer1.utilization             1.4                       # Layer utilization (%)
system.tol2bus.respLayer0.occupancy           1243288                       # Layer occupancy (ticks)
system.tol2bus.respLayer0.utilization             0.0                       # Layer utilization (%)
system.voltage_domain.voltage                       1                       # Voltage in Volts
system.clk_domain.clock                          1000                       # Clock period in ticks
system.l2.pwrStateResidencyTicks::UNDEFINED 987140629653                       # Cumulative time (in ticks) in various power states
system.l2.demand_hits::.cpu.inst                   31                       # number of demand (read+write) hits
system.l2.demand_hits::.cpu.data                24590                       # number of demand (read+write) hits
system.l2.demand_hits::total                    24621                       # number of demand (read+write) hits
system.l2.overall_hits::.cpu.inst                  31                       # number of overall hits
system.l2.overall_hits::.cpu.data               24590                       # number of overall hits
system.l2.overall_hits::total                   24621                       # number of overall hits
system.l2.demand_misses::.cpu.inst                901                       # number of demand (read+write) misses
system.l2.demand_misses::.cpu.data           10526135                       # number of demand (read+write) misses
system.l2.demand_misses::total               10527036                       # number of demand (read+write) misses
system.l2.overall_misses::.cpu.inst               901                       # number of overall misses
system.l2.overall_misses::.cpu.data          10526135                       # number of overall misses
system.l2.overall_misses::total              10527036                       # number of overall misses
system.l2.demand_miss_latency::.cpu.inst     76735682                       # number of demand (read+write) miss cycles
system.l2.demand_miss_latency::.cpu.data 891632290015                       # number of demand (read+write) miss cycles
system.l2.demand_miss_latency::total     891709025697                       # number of demand (read+write) miss cycles
system.l2.overall_miss_latency::.cpu.inst     76735682                       # number of overall miss cycles
system.l2.overall_miss_latency::.cpu.data 891632290015                       # number of overall miss cycles
system.l2.overall_miss_latency::total    891709025697                       # number of overall miss cycles
system.l2.demand_accesses::.cpu.inst              932                       # number of demand (read+write) accesses
system.l2.demand_accesses::.cpu.data         10550725                       # number of demand (read+write) accesses
system.l2.demand_accesses::total             10551657                       # number of demand (read+write) accesses
system.l2.overall_accesses::.cpu.inst             932                       # number of overall (read+write) accesses
system.l2.overall_accesses::.cpu.data        10550725                       # number of overall (read+write) accesses
system.l2.overall_accesses::total            10551657                       # number of overall (read+write) accesses
system.l2.demand_miss_rate::.cpu.inst        0.966738                       # miss rate for demand accesses
system.l2.demand_miss_rate::.cpu.data        0.997669                       # miss rate for demand accesses
system.l2.demand_miss_rate::total            0.997667                       # miss rate for demand accesses
system.l2.overall_miss_rate::.cpu.inst       0.966738                       # miss rate for overall accesses
system.l2.overall_miss_rate::.cpu.data       0.997669                       # miss rate for overall accesses
system.l2.overall_miss_rate::total           0.997667                       # miss rate for overall accesses
system.l2.demand_avg_miss_latency::.cpu.inst 85167.238624                       # average overall miss latency
system.l2.demand_avg_miss_latency::.cpu.data 84706.522386                       # average overall miss latency
system.l2.demand_avg_miss_latency::total 84706.561818                       # average overall miss latency
system.l2.overall_avg_miss_latency::.cpu.inst 85167.238624                       # average overall miss latency
system.l2.overall_avg_miss_latency::.cpu.data 84706.522386                       # average overall miss latency
system.l2.overall_avg_miss_latency::total 84706.561818                       # average overall miss latency
system.l2.blocked_cycles::no_mshrs                  0                       # number of cycles access was blocked
system.l2.blocked_cycles::no_targets                0                       # number of cycles access was blocked
system.l2.blocked::no_mshrs                         0                       # number of cycles access was blocked
system.l2.blocked::no_targets                       0                       # number of cycles access was blocked
system.l2.avg_blocked_cycles::no_mshrs            nan                       # average number of cycles each access was blocked
system.l2.avg_blocked_cycles::no_targets          nan                       # average number of cycles each access was blocked
system.l2.writebacks::.writebacks            10492989                       # number of writebacks
system.l2.writebacks::total                  10492989                       # number of writebacks
system.l2.demand_mshr_hits::.cpu.data               2                       # number of demand (read+write) MSHR hits
system.l2.demand_mshr_hits::total                   2                       # number of demand (read+write) MSHR hits
system.l2.overall_mshr_hits::.cpu.data              2                       # number of overall MSHR hits
system.l2.overall_mshr_hits::total                  2                       # number of overall MSHR hits
system.l2.demand_mshr_misses::.cpu.inst           901                       # number of demand (read+write) MSHR misses
system.l2.demand_mshr_misses::.cpu.data      10526133                       # number of demand (read+write) MSHR misses
system.l2.demand_mshr_misses::total          10527034                       # number of demand (read+write) MSHR misses
system.l2.overall_mshr_misses::.cpu.inst          901                       # number of overall MSHR misses
system.l2.overall_mshr_misses::.cpu.data     10526133                       # number of overall MSHR misses
system.l2.overall_mshr_misses::total         10527034                       # number of overall MSHR misses
system.l2.demand_mshr_miss_latency::.cpu.inst     64432132                       # number of demand (read+write) MSHR miss cycles
system.l2.demand_mshr_miss_latency::.cpu.data 747703733434                       # number of demand (read+write) MSHR miss cycles
system.l2.demand_mshr_miss_latency::total 747768165566                       # number of demand (read+write) MSHR miss cycles
system.l2.overall_mshr_miss_latency::.cpu.inst     64432132                       # number of overall MSHR miss cycles
system.l2.overall_mshr_miss_latency::.cpu.data 747703733434                       # number of overall MSHR miss cycles
system.l2.overall_mshr_miss_latency::total 747768165566                       # number of overall MSHR miss cycles
system.l2.demand_mshr_miss_rate::.cpu.inst     0.966738                       # mshr miss rate for demand accesses
system.l2.demand_mshr_miss_rate::.cpu.data     0.997669                       # mshr miss rate for demand accesses
system.l2.demand_mshr_miss_rate::total       0.997666                       # mshr miss rate for demand accesses
system.l2.overall_mshr_miss_rate::.cpu.inst     0.966738                       # mshr miss rate for overall accesses
system.l2.overall_mshr_miss_rate::.cpu.data     0.997669                       # mshr miss rate for overall accesses
system.l2.overall_mshr_miss_rate::total      0.997666                       # mshr miss rate for overall accesses
system.l2.demand_avg_mshr_miss_latency::.cpu.inst 71511.800222                       # average overall mshr miss latency
system.l2.demand_avg_mshr_miss_latency::.cpu.data 71033.088166                       # average overall mshr miss latency
system.l2.demand_avg_mshr_miss_latency::total 71033.129138                       # average overall mshr miss latency
system.l2.overall_avg_mshr_miss_latency::.cpu.inst 71511.800222                       # average overall mshr miss latency
system.l2.overall_avg_mshr_miss_latency::.cpu.data 71033.088166                       # average overall mshr miss latency
system.l2.overall_avg_mshr_miss_latency::total 71033.129138                       # average overall mshr miss latency
system.l2.replacements                       10494266                       # number of replacements
system.l2.WritebackDirty_hits::.writebacks     10536059                       # number of WritebackDirty hits
system.l2.WritebackDirty_hits::total         10536059                       # number of WritebackDirty hits
system.l2.WritebackDirty_accesses::.writebacks     10536059                       # number of WritebackDirty accesses(hits+misses)
system.l2.WritebackDirty_accesses::total     10536059                       # number of WritebackDirty accesses(hits+misses)
system.l2.ReadExReq_hits::.cpu.data               708                       # number of ReadExReq hits
system.l2.ReadExReq_hits::total                   708                       # number of ReadExReq hits
system.l2.ReadExReq_misses::.cpu.data        10525718                       # number of ReadExReq misses
system.l2.ReadExReq_misses::total            10525718                       # number of ReadExReq misses
system.l2.ReadExReq_miss_latency::.cpu.data 891593431262                       # number of ReadExReq miss cycles
system.l2.ReadExReq_miss_latency::total  891593431262                       # number of ReadExReq miss cycles
system.l2.ReadExReq_accesses::.cpu.data      10526426                       # number of ReadExReq accesses(hits+misses)
system.l2.ReadExReq_accesses::total          10526426                       # number of ReadExReq accesses(hits+misses)
system.l2.ReadExReq_miss_rate::.cpu.data     0.999933                       # miss rate for ReadExReq accesses
system.l2.ReadExReq_miss_rate::total         0.999933                       # miss rate for ReadExReq accesses
system.l2.ReadExReq_avg_miss_latency::.cpu.data 84706.186434                       # average ReadExReq miss latency
system.l2.ReadExReq_avg_miss_latency::total 84706.186434                       # average ReadExReq miss latency
system.l2.ReadExReq_mshr_misses::.cpu.data     10525718                       # number of ReadExReq MSHR misses
system.l2.ReadExReq_mshr_misses::total       10525718                       # number of ReadExReq MSHR misses
system.l2.ReadExReq_mshr_miss_latency::.cpu.data 747670706120                       # number of ReadExReq MSHR miss cycles
system.l2.ReadExReq_mshr_miss_latency::total 747670706120                       # number of ReadExReq MSHR miss cycles
system.l2.ReadExReq_mshr_miss_rate::.cpu.data     0.999933                       # mshr miss rate for ReadExReq accesses
system.l2.ReadExReq_mshr_miss_rate::total     0.999933                       # mshr miss rate for ReadExReq accesses
system.l2.ReadExReq_avg_mshr_miss_latency::.cpu.data 71032.751031                       # average ReadExReq mshr miss latency
system.l2.ReadExReq_avg_mshr_miss_latency::total 71032.751031                       # average ReadExReq mshr miss latency
system.l2.ReadCleanReq_hits::.cpu.inst             31                       # number of ReadCleanReq hits
system.l2.ReadCleanReq_hits::total                 31                       # number of ReadCleanReq hits
system.l2.ReadCleanReq_misses::.cpu.inst          901                       # number of ReadCleanReq misses
system.l2.ReadCleanReq_misses::total              901                       # number of ReadCleanReq misses
system.l2.ReadCleanReq_miss_latency::.cpu.inst     76735682                       # number of ReadCleanReq miss cycles
system.l2.ReadCleanReq_miss_latency::total     76735682                       # number of ReadCleanReq miss cycles
system.l2.ReadCleanReq_accesses::.cpu.inst          932                       # number of ReadCleanReq accesses(hits+misses)
system.l2.ReadCleanReq_accesses::total            932                       # number of ReadCleanReq accesses(hits+misses)
system.l2.ReadCleanReq_miss_rate::.cpu.inst     0.966738                       # miss rate for ReadCleanReq accesses
system.l2.ReadCleanReq_miss_rate::total      0.966738                       # miss rate for ReadCleanReq accesses
system.l2.ReadCleanReq_avg_miss_latency::.cpu.inst 85167.238624                       # average ReadCleanReq miss latency
system.l2.ReadCleanReq_avg_miss_latency::total 85167.238624                       # average ReadCleanReq miss latency
system.l2.ReadCleanReq_mshr_misses::.cpu.inst          901                       # number of ReadCleanReq MSHR misses
system.l2.ReadCleanReq_mshr_misses::total          901                       # number of ReadCleanReq MSHR misses
system.l2.ReadCleanReq_mshr_miss_latency::.cpu.inst     64432132                       # number of ReadCleanReq MSHR miss cycles
system.l2.ReadCleanReq_mshr_miss_latency::total     64432132                       # number of ReadCleanReq MSHR miss cycles
system.l2.ReadCleanReq_mshr_miss_rate::.cpu.inst     0.966738                       # mshr miss rate for ReadCleanReq accesses
system.l2.ReadCleanReq_mshr_miss_rate::total     0.966738                       # mshr miss rate for ReadCleanReq accesses
system.l2.ReadCleanReq_avg_mshr_miss_latency::.cpu.inst 71511.800222                       # average ReadCleanReq mshr miss latency
system.l2.ReadCleanReq_avg_mshr_miss_latency::total 71511.800222                       # average ReadCleanReq mshr miss latency
system.l2.ReadSharedReq_hits::.cpu.data         23882                       # number of ReadSharedReq hits
system.l2.ReadSharedReq_hits::total             23882                       # number of ReadSharedReq hits
system.l2.ReadSharedReq_misses::.cpu.data          417                       # number of ReadSharedReq misses
system.l2.ReadSharedReq_misses::total             417                       # number of ReadSharedReq misses
system.l2.ReadSharedReq_miss_latency::.cpu.data     38858753                       # number of ReadSharedReq miss cycles
system.l2.ReadSharedReq_miss_latency::total     38858753                       # number of ReadSharedReq miss cycles
system.l2.ReadSharedReq_accesses::.cpu.data        24299                       # number of ReadSharedReq accesses(hits+misses)
system.l2.ReadSharedReq_accesses::total         24299                       # number of ReadSharedReq accesses(hits+misses)
system.l2.ReadSharedReq_miss_rate::.cpu.data     0.017161                       # miss rate for ReadSharedReq accesses
system.l2.ReadSharedReq_miss_rate::total     0.017161                       # miss rate for ReadSharedReq accesses
system.l2.ReadSharedReq_avg_miss_latency::.cpu.data 93186.458034                       # average ReadSharedReq miss latency
system.l2.ReadSharedReq_avg_miss_latency::total 93186.458034                       # average ReadSharedReq miss latency
system.l2.ReadSharedReq_mshr_hits::.cpu.data            2                       # number of ReadSharedReq MSHR hits
system.l2.ReadSharedReq_mshr_hits::total            2                       # number of ReadSharedReq MSHR hits
system.l2.ReadSharedReq_mshr_misses::.cpu.data          415                       # number of ReadSharedReq MSHR misses
system.l2.ReadSharedReq_mshr_misses::total          415                       # number of ReadSharedReq MSHR misses
system.l2.ReadSharedReq_mshr_miss_latency::.cpu.data     33027314                       # number of ReadSharedReq MSHR miss cycles
system.l2.ReadSharedReq_mshr_miss_latency::total     33027314                       # number of ReadSharedReq MSHR miss cycles
system.l2.ReadSharedReq_mshr_miss_rate::.cpu.data     0.017079                       # mshr miss rate for ReadSharedReq accesses
system.l2.ReadSharedReq_mshr_miss_rate::total     0.017079                       # mshr miss rate for ReadSharedReq accesses
system.l2.ReadSharedReq_avg_mshr_miss_latency::.cpu.data 79583.889157                       # average ReadSharedReq mshr miss latency
system.l2.ReadSharedReq_avg_mshr_miss_latency::total 79583.889157                       # average ReadSharedReq mshr miss latency
system.l2.InvalidateReq_hits::.cpu.data             1                       # number of InvalidateReq hits
system.l2.InvalidateReq_hits::total                 1                       # number of InvalidateReq hits
system.l2.InvalidateReq_misses::.cpu.data            1                       # number of InvalidateReq misses
system.l2.InvalidateReq_misses::total               1                       # number of InvalidateReq misses
system.l2.InvalidateReq_accesses::.cpu.data            2                       # number of InvalidateReq accesses(hits+misses)
system.l2.InvalidateReq_accesses::total             2                       # number of InvalidateReq accesses(hits+misses)
system.l2.InvalidateReq_miss_rate::.cpu.data     0.500000                       # miss rate for InvalidateReq accesses
system.l2.InvalidateReq_miss_rate::total     0.500000                       # miss rate for InvalidateReq accesses
system.l2.InvalidateReq_mshr_misses::.cpu.data            1                       # number of InvalidateReq MSHR misses
system.l2.InvalidateReq_mshr_misses::total            1                       # number of InvalidateReq MSHR misses
system.l2.InvalidateReq_mshr_miss_latency::.cpu.data        23547                       # number of InvalidateReq MSHR miss cycles
system.l2.InvalidateReq_mshr_miss_latency::total        23547                       # number of InvalidateReq MSHR miss cycles
system.l2.InvalidateReq_mshr_miss_rate::.cpu.data     0.500000                       # mshr miss rate for InvalidateReq accesses
system.l2.InvalidateReq_mshr_miss_rate::total     0.500000                       # mshr miss rate for InvalidateReq accesses
system.l2.InvalidateReq_avg_mshr_miss_latency::.cpu.data        23547                       # average InvalidateReq mshr miss latency
system.l2.InvalidateReq_avg_mshr_miss_latency::total        23547                       # average InvalidateReq mshr miss latency
system.l2.tags.pwrStateResidencyTicks::UNDEFINED 987140629653                       # Cumulative time (in ticks) in various power states
system.l2.tags.tagsinuse                 32594.157457                       # Cycle average of tags in use
system.l2.tags.total_refs                    21100205                       # Total number of references to valid blocks.
system.l2.tags.sampled_refs                  10527035                       # Sample count of references to valid blocks.
system.l2.tags.avg_refs                      2.004383                       # Average number of references to valid blocks.
system.l2.tags.warmup_cycle                     80000                       # Cycle when the warmup percentage was hit.
system.l2.tags.occ_blocks::.writebacks       0.004574                       # Average occupied blocks per requestor
system.l2.tags.occ_blocks::.cpu.inst         4.493604                       # Average occupied blocks per requestor
system.l2.tags.occ_blocks::.cpu.data     32589.659278                       # Average occupied blocks per requestor
system.l2.tags.occ_percent::.writebacks      0.000000                       # Average percentage of cache occupancy
system.l2.tags.occ_percent::.cpu.inst        0.000137                       # Average percentage of cache occupancy
system.l2.tags.occ_percent::.cpu.data        0.994557                       # Average percentage of cache occupancy
system.l2.tags.occ_percent::total            0.994695                       # Average percentage of cache occupancy
system.l2.tags.occ_task_id_blocks::1024         32768                       # Occupied blocks per task id
system.l2.tags.age_task_id_blocks_1024::0          108                       # Occupied blocks per task id
system.l2.tags.age_task_id_blocks_1024::1          966                       # Occupied blocks per task id
system.l2.tags.age_task_id_blocks_1024::2         9636                       # Occupied blocks per task id
system.l2.tags.age_task_id_blocks_1024::3        22058                       # Occupied blocks per task id
system.l2.tags.occ_task_id_percent::1024            1                       # Percentage of cache occupancy per task id
system.l2.tags.tag_accesses                  52727453                       # Number of tag accesses
system.l2.tags.data_accesses                 52727453                       # Number of data accesses
system.cpu_voltage_domain.voltage                   1                       # Voltage in Volts
system.mem_ctrls.pwrStateResidencyTicks::UNDEFINED 987140629653                       # Cumulative time (in ticks) in various power states
system.mem_ctrls.bytes_read::.cpu.inst          28832                       # Number of bytes read from this memory
system.mem_ctrls.bytes_read::.cpu.data      336836224                       # Number of bytes read from this memory
system.mem_ctrls.bytes_read::total          336865056                       # Number of bytes read from this memory
system.mem_ctrls.bytes_inst_read::.cpu.inst        28832                       # Number of instructions bytes read from this memory
system.mem_ctrls.bytes_inst_read::total         28832                       # Number of instructions bytes read from this memory
system.mem_ctrls.bytes_written::.writebacks    335775648                       # Number of bytes written to this memory
system.mem_ctrls.bytes_written::total       335775648                       # Number of bytes written to this memory
system.mem_ctrls.num_reads::.cpu.inst             901                       # Number of read requests responded to by this memory
system.mem_ctrls.num_reads::.cpu.data        10526132                       # Number of read requests responded to by this memory
system.mem_ctrls.num_reads::total            10527033                       # Number of read requests responded to by this memory
system.mem_ctrls.num_writes::.writebacks     10492989                       # Number of write requests responded to by this memory
system.mem_ctrls.num_writes::total           10492989                       # Number of write requests responded to by this memory
system.mem_ctrls.bw_read::.cpu.inst             29208                       # Total read bandwidth from this memory (bytes/s)
system.mem_ctrls.bw_read::.cpu.data         341224152                       # Total read bandwidth from this memory (bytes/s)
system.mem_ctrls.bw_read::total             341253359                       # Total read bandwidth from this memory (bytes/s)
system.mem_ctrls.bw_inst_read::.cpu.inst        29208                       # Instruction read bandwidth from this memory (bytes/s)
system.mem_ctrls.bw_inst_read::total            29208                       # Instruction read bandwidth from this memory (bytes/s)
system.mem_ctrls.bw_write::.writebacks      340149760                       # Write bandwidth from this memory (bytes/s)
system.mem_ctrls.bw_write::total            340149760                       # Write bandwidth from this memory (bytes/s)
system.mem_ctrls.bw_total::.writebacks      340149760                       # Total bandwidth to/from this memory (bytes/s)
system.mem_ctrls.bw_total::.cpu.inst            29208                       # Total bandwidth to/from this memory (bytes/s)
system.mem_ctrls.bw_total::.cpu.data        341224152                       # Total bandwidth to/from this memory (bytes/s)
system.mem_ctrls.bw_total::total            681403119                       # Total bandwidth to/from this memory (bytes/s)
system.mem_ctrls.avgPriority_.writebacks::samples   5247050.00                       # Average QoS priority value for accepted requests
system.mem_ctrls.avgPriority_.cpu.inst::samples       901.00                       # Average QoS priority value for accepted requests
system.mem_ctrls.avgPriority_.cpu.data::samples  10526132.00                       # Average QoS priority value for accepted requests
system.mem_ctrls.priorityMinLatency      0.000000018750                       # per QoS priority minimum request to response latency (s)
system.mem_ctrls.priorityMaxLatency      0.002196540906                       # per QoS priority maximum request to response latency (s)
system.mem_ctrls.numReadWriteTurnArounds       327934                       # Number of turnarounds from READ to WRITE
system.mem_ctrls.numWriteReadTurnArounds       327934                       # Number of turnarounds from WRITE to READ
system.mem_ctrls.numStayReadState            31465667                       # Number of times bus staying in READ state
system.mem_ctrls.numStayWriteState            4922822                       # Number of times bus staying in WRITE state
system.mem_ctrls.readReqs                    10527033                       # Number of read requests accepted
system.mem_ctrls.writeReqs                   10492989                       # Number of write requests accepted
system.mem_ctrls.readBursts                  10527033                       # Number of DRAM read bursts, including those serviced by the write queue
system.mem_ctrls.writeBursts                 10492989                       # Number of DRAM write bursts, including those merged in the write queue
system.mem_ctrls.servicedByWrQ                      0                       # Number of DRAM read bursts serviced by the write queue
system.mem_ctrls.mergedWrBursts               5245939                       # Number of DRAM write bursts merged with an existing one
system.mem_ctrls.neitherReadNorWriteReqs            0                       # Number of requests that are neither read nor write
system.mem_ctrls.perBankRdBursts::0            657997                       # Per bank write bursts
system.mem_ctrls.perBankRdBursts::1            658032                       # Per bank write bursts
system.mem_ctrls.perBankRdBursts::2            658122                       # Per bank write bursts
system.mem_ctrls.perBankRdBursts::3            658094                       # Per bank write bursts
system.mem_ctrls.perBankRdBursts::4            658024                       # Per bank write bursts
system.mem_ctrls.perBankRdBursts::5            658085                       # Per bank write bursts
system.mem_ctrls.perBankRdBursts::6            658118                       # Per bank write bursts
system.mem_ctrls.perBankRdBursts::7            657849                       # Per bank write bursts
system.mem_ctrls.perBankRdBursts::8            657767                       # Per bank write bursts
system.mem_ctrls.perBankRdBursts::9            657715                       # Per bank write bursts
system.mem_ctrls.perBankRdBursts::10           657626                       # Per bank write bursts
system.mem_ctrls.perBankRdBursts::11           657987                       # Per bank write bursts
system.mem_ctrls.perBankRdBursts::12           657994                       # Per bank write bursts
system.mem_ctrls.perBankRdBursts::13           658001                       # Per bank write bursts
system.mem_ctrls.perBankRdBursts::14           657903                       # Per bank write bursts
system.mem_ctrls.perBankRdBursts::15           657719                       # Per bank write bursts
system.mem_ctrls.perBankWrBursts::0            327936                       # Per bank write bursts
system.mem_ctrls.perBankWrBursts::1            327979                       # Per bank write bursts
system.mem_ctrls.perBankWrBursts::2            328063                       # Per bank write bursts
system.mem_ctrls.perBankWrBursts::3            328038                       # Per bank write bursts
system.mem_ctrls.perBankWrBursts::4            327993                       # Per bank write bursts
system.mem_ctrls.perBankWrBursts::5            328007                       # Per bank write bursts
system.mem_ctrls.perBankWrBursts::6            328028                       # Per bank write bursts
system.mem_ctrls.perBankWrBursts::7            327905                       # Per bank write bursts
system.mem_ctrls.perBankWrBursts::8            327846                       # Per bank write bursts
system.mem_ctrls.perBankWrBursts::9            327815                       # Per bank write bursts
system.mem_ctrls.perBankWrBursts::10           327746                       # Per bank write bursts
system.mem_ctrls.perBankWrBursts::11           327993                       # Per bank write bursts
system.mem_ctrls.perBankWrBursts::12           327974                       # Per bank write bursts
system.mem_ctrls.perBankWrBursts::13           327954                       # Per bank write bursts
system.mem_ctrls.perBankWrBursts::14           327902                       # Per bank write bursts
system.mem_ctrls.perBankWrBursts::15           327845                       # Per bank write bursts
system.mem_ctrls.avgRdQLen                       1.00                       # Average read queue length when enqueuing
system.mem_ctrls.avgWrQLen                      25.69                       # Average write queue length when enqueuing
system.mem_ctrls.totQLat                  77410952429                       # Total ticks spent queuing
system.mem_ctrls.totBusLat                52635165000                       # Total ticks spent in databus transfers
system.mem_ctrls.totMemAccLat            274792821179                       # Total ticks spent from burst creation until serviced by the DRAM
system.mem_ctrls.avgQLat                      7353.54                       # Average queueing delay per DRAM burst
system.mem_ctrls.avgBusLat                    5000.00                       # Average bus latency per DRAM burst
system.mem_ctrls.avgMemAccLat                26103.54                       # Average memory access latency per DRAM burst
system.mem_ctrls.numRdRetry                         0                       # Number of times read queue was full causing retry
system.mem_ctrls.numWrRetry                         0                       # Number of times write queue was full causing retry
system.mem_ctrls.readRowHits                  9714182                       # Number of row buffer hits during reads
system.mem_ctrls.writeRowHits                 4877269                       # Number of row buffer hits during writes
system.mem_ctrls.readRowHitRate                 92.28                       # Row buffer hit rate for reads
system.mem_ctrls.writeRowHitRate                92.95                       # Row buffer hit rate for writes
system.mem_ctrls.readPktSize::0                     0                       # Read request sizes (log2)
system.mem_ctrls.readPktSize::1                     0                       # Read request sizes (log2)
system.mem_ctrls.readPktSize::2                     0                       # Read request sizes (log2)
system.mem_ctrls.readPktSize::3                     0                       # Read request sizes (log2)
system.mem_ctrls.readPktSize::4                     0                       # Read request sizes (log2)
system.mem_ctrls.readPktSize::5              10527033                       # Read request sizes (log2)
system.mem_ctrls.readPktSize::6                     0                       # Read request sizes (log2)
system.mem_ctrls.writePktSize::0                    0                       # Write request sizes (log2)
system.mem_ctrls.writePktSize::1                    0                       # Write request sizes (log2)
system.mem_ctrls.writePktSize::2                    0                       # Write request sizes (log2)
system.mem_ctrls.writePktSize::3                    0                       # Write request sizes (log2)
system.mem_ctrls.writePktSize::4                    0                       # Write request sizes (log2)
system.mem_ctrls.writePktSize::5             10492989                       # Write request sizes (log2)
system.mem_ctrls.writePktSize::6                    0                       # Write request sizes (log2)
system.mem_ctrls.rdQLenPdf::0                10525027                       # What read queue length does an incoming req see
system.mem_ctrls.rdQLenPdf::1                    1960                       # What read queue length does an incoming req see
system.mem_ctrls.rdQLenPdf::2                      44                       # What read queue length does an incoming req see
system.mem_ctrls.rdQLenPdf::3                       2                       # What read queue length does an incoming req see
system.mem_ctrls.rdQLenPdf::4                       0                       # What read queue length does an incoming req see
system.mem_ctrls.rdQLenPdf::5                       0                       # What read queue length does an incoming req see
system.mem_ctrls.rdQLenPdf::6                       0                       # What read queue length does an incoming req see
system.mem_ctrls.rdQLenPdf::7                       0                       # What read queue length does an incoming req see
system.mem_ctrls.rdQLenPdf::8                       0                       # What read queue length does an incoming req see
system.mem_ctrls.rdQLenPdf::9                       0                       # What read queue length does an incoming req see
system.mem_ctrls.rdQLenPdf::10                      0                       # What read queue length does an incoming req see
system.mem_ctrls.rdQLenPdf::11                      0                       # What read queue length does an incoming req see
system.mem_ctrls.rdQLenPdf::12                      0                       # What read queue length does an incoming req see
system.mem_ctrls.rdQLenPdf::13                      0                       # What read queue length does an incoming req see
system.mem_ctrls.rdQLenPdf::14                      0                       # What read queue length does an incoming req see
system.mem_ctrls.rdQLenPdf::15                      0                       # What read queue length does an incoming req see
system.mem_ctrls.rdQLenPdf::16                      0                       # What read queue length does an incoming req see
system.mem_ctrls.rdQLenPdf::17                      0                       # What read queue length does an incoming req see
system.mem_ctrls.rdQLenPdf::18                      0                       # What read queue length does an incoming req see
system.mem_ctrls.rdQLenPdf::19                      0                       # What read queue length does an incoming req see
system.mem_ctrls.rdQLenPdf::20                      0                       # What read queue length does an incoming req see
system.mem_ctrls.rdQLenPdf::21                      0                       # What read queue length does an incoming req see
system.mem_ctrls.rdQLenPdf::22                      0                       # What read queue length does an incoming req see
system.mem_ctrls.rdQLenPdf::23                      0                       # What read queue length does an incoming req see
system.mem_ctrls.rdQLenPdf::24                      0                       # What read queue length does an incoming req see
system.mem_ctrls.rdQLenPdf::25                      0                       # What read queue length does an incoming req see
system.mem_ctrls.rdQLenPdf::26                      0                       # What read queue length does an incoming req see
system.mem_ctrls.rdQLenPdf::27                      0                       # What read queue length does an incoming req see
system.mem_ctrls.rdQLenPdf::28                      0                       # What read queue length does an incoming req see
system.mem_ctrls.rdQLenPdf::29                      0                       # What read queue length does an incoming req see
system.mem_ctrls.rdQLenPdf::30                      0                       # What read queue length does an incoming req see
system.mem_ctrls.rdQLenPdf::31                      0                       # What read queue length does an incoming req see
system.mem_ctrls.wrQLenPdf::0                       1                       # What write queue length does an incoming req see
system.mem_ctrls.wrQLenPdf::1                       1                       # What write queue length does an incoming req see
system.mem_ctrls.wrQLenPdf::2                       1                       # What write queue length does an incoming req see
system.mem_ctrls.wrQLenPdf::3                       1                       # What write queue length does an incoming req see
system.mem_ctrls.wrQLenPdf::4                       1                       # What write queue length does an incoming req see
system.mem_ctrls.wrQLenPdf::5                       1                       # What write queue length does an incoming req see
system.mem_ctrls.wrQLenPdf::6                       1                       # What write queue length does an incoming req see
system.mem_ctrls.wrQLenPdf::7                       1                       # What write queue length does an incoming req see
system.mem_ctrls.wrQLenPdf::8                       1                       # What write queue length does an incoming req see
system.mem_ctrls.wrQLenPdf::9                       1                       # What write queue length does an incoming req see
system.mem_ctrls.wrQLenPdf::10                      1                       # What write queue length does an incoming req see
system.mem_ctrls.wrQLenPdf::11                      1                       # What write queue length does an incoming req see
system.mem_ctrls.wrQLenPdf::12                      1                       # What write queue length does an incoming req see
system.mem_ctrls.wrQLenPdf::13                      1                       # What write queue length does an incoming req see
system.mem_ctrls.wrQLenPdf::14                      1                       # What write queue length does an incoming req see
system.mem_ctrls.wrQLenPdf::15                     39                       # What write queue length does an incoming req see
system.mem_ctrls.wrQLenPdf::16                     41                       # What write queue length does an incoming req see
system.mem_ctrls.wrQLenPdf::17                 327934                       # What write queue length does an incoming req see
system.mem_ctrls.wrQLenPdf::18                 327935                       # What write queue length does an incoming req see
system.mem_ctrls.wrQLenPdf::19                 327935                       # What write queue length does an incoming req see
system.mem_ctrls.wrQLenPdf::20                 327935                       # What write queue length does an incoming req see
system.mem_ctrls.wrQLenPdf::21                 327936                       # What write queue length does an incoming req see
system.mem_ctrls.wrQLenPdf::22                 327935                       # What write queue length does an incoming req see
system.mem_ctrls.wrQLenPdf::23                 327935                       # What write queue length does an incoming req see
system.mem_ctrls.wrQLenPdf::24                 327935                       # What write queue length does an incoming req see
system.mem_ctrls.wrQLenPdf::25                 327935                       # What write queue length does an incoming req see
system.mem_ctrls.wrQLenPdf::26                 327934                       # What write queue length does an incoming req see
system.mem_ctrls.wrQLenPdf::27                 327934                       # What write queue length does an incoming req see
system.mem_ctrls.wrQLenPdf::28                 327935                       # What write queue length does an incoming req see
system.mem_ctrls.wrQLenPdf::29                 327935                       # What write queue length does an incoming req see
system.mem_ctrls.wrQLenPdf::30                 327934                       # What write queue length does an incoming req see
system.mem_ctrls.wrQLenPdf::31                 327934                       # What write queue length does an incoming req see
system.mem_ctrls.wrQLenPdf::32                 327934                       # What write queue length does an incoming req see
system.mem_ctrls.wrQLenPdf::33                      0                       # What write queue length does an incoming req see
system.mem_ctrls.wrQLenPdf::34                      0                       # What write queue length does an incoming req see
system.mem_ctrls.wrQLenPdf::35                      0                       # What write queue length does an incoming req see
system.mem_ctrls.wrQLenPdf::36                      0                       # What write queue length does an incoming req see
system.mem_ctrls.wrQLenPdf::37                      0                       # What write queue length does an incoming req see
system.mem_ctrls.wrQLenPdf::38                      0                       # What write queue length does an incoming req see
system.mem_ctrls.wrQLenPdf::39                      0                       # What write queue length does an incoming req see
system.mem_ctrls.wrQLenPdf::40                      0                       # What write queue length does an incoming req see
system.mem_ctrls.wrQLenPdf::41                      0                       # What write queue length does an incoming req see
system.mem_ctrls.wrQLenPdf::42                      0                       # What write queue length does an incoming req see
system.mem_ctrls.wrQLenPdf::43                      0                       # What write queue length does an incoming req see
system.mem_ctrls.wrQLenPdf::44                      0                       # What write queue length does an incoming req see
system.mem_ctrls.wrQLenPdf::45                      0                       # What write queue length does an incoming req see
system.mem_ctrls.wrQLenPdf::46                      0                       # What write queue length does an incoming req see
system.mem_ctrls.wrQLenPdf::47                      0                       # What write queue length does an incoming req see
system.mem_ctrls.wrQLenPdf::48                      0                       # What write queue length does an incoming req see
system.mem_ctrls.wrQLenPdf::49                      0                       # What write queue length does an incoming req see
system.mem_ctrls.wrQLenPdf::50                      0                       # What write queue length does an incoming req see
system.mem_ctrls.wrQLenPdf::51                      0                       # What write queue length does an incoming req see
system.mem_ctrls.wrQLenPdf::52                      0                       # What write queue length does an incoming req see
system.mem_ctrls.wrQLenPdf::53                      0                       # What write queue length does an incoming req see
system.mem_ctrls.wrQLenPdf::54                      0                       # What write queue length does an incoming req see
system.mem_ctrls.wrQLenPdf::55                      0                       # What write queue length does an incoming req see
system.mem_ctrls.wrQLenPdf::56                      0                       # What write queue length does an incoming req see
system.mem_ctrls.wrQLenPdf::57                      0                       # What write queue length does an incoming req see
system.mem_ctrls.wrQLenPdf::58                      0                       # What write queue length does an incoming req see
system.mem_ctrls.wrQLenPdf::59                      0                       # What write queue length does an incoming req see
system.mem_ctrls.wrQLenPdf::60                      0                       # What write queue length does an incoming req see
system.mem_ctrls.wrQLenPdf::61                      0                       # What write queue length does an incoming req see
system.mem_ctrls.wrQLenPdf::62                      0                       # What write queue length does an incoming req see
system.mem_ctrls.wrQLenPdf::63                      0                       # What write queue length does an incoming req see
system.mem_ctrls.bytesPerActivate::samples      1182605                       # Bytes accessed per row activation
system.mem_ctrls.bytesPerActivate::mean    853.657355                       # Bytes accessed per row activation
system.mem_ctrls.bytesPerActivate::gmean   746.281213                       # Bytes accessed per row activation
system.mem_ctrls.bytesPerActivate::stdev   295.115451                       # Bytes accessed per row activation
system.mem_ctrls.bytesPerActivate::0-127        40782      3.45%      3.45% # Bytes accessed per row activation
system.mem_ctrls.bytesPerActivate::128-255        45571      3.85%      7.30% # Bytes accessed per row activation
system.mem_ctrls.bytesPerActivate::256-383        55000      4.65%     11.95% # Bytes accessed per row activation
system.mem_ctrls.bytesPerActivate::384-511        50613      4.28%     16.23% # Bytes accessed per row activation
system.mem_ctrls.bytesPerActivate::512-639        39826      3.37%     19.60% # Bytes accessed per row activation
system.mem_ctrls.bytesPerActivate::640-767        59183      5.00%     24.60% # Bytes accessed per row activation
system.mem_ctrls.bytesPerActivate::768-895        43094      3.64%     28.25% # Bytes accessed per row activation
system.mem_ctrls.bytesPerActivate::896-1023        46324      3.92%     32.17% # Bytes accessed per row activation
system.mem_ctrls.bytesPerActivate::1024-1151       802212     67.83%    100.00% # Bytes accessed per row activation
system.mem_ctrls.bytesPerActivate::total      1182605                       # Bytes accessed per row activation
system.mem_ctrls.rdPerTurnAround::samples       327934                       # Reads before turning the bus around for writes
[...]
system.cpu.icache.tags.occ_blocks::.cpu.inst   771.353678                       # Average occupied blocks per requestor
system.cpu.icache.tags.occ_percent::.cpu.inst     0.094159                       # Average percentage of cache occupancy
system.cpu.icache.tags.occ_percent::total     0.094159                       # Average percentage of cache occupancy
system.cpu.icache.tags.occ_task_id_blocks::1024          932                       # Occupied blocks per task id
system.cpu.icache.tags.age_task_id_blocks_1024::4          932                       # Occupied blocks per task id
system.cpu.icache.tags.occ_task_id_percent::1024     0.113770                       # Percentage of cache occupancy per task id
system.cpu.icache.tags.tag_accesses          85183392                       # Number of tag accesses
system.cpu.icache.tags.data_accesses         85183392                       # Number of data accesses
system.cpu.dtb.walker.pwrStateResidencyTicks::UNDEFINED 987140629653                       # Cumulative time (in ticks) in various power states
system.cpu.dtb.stage2_mmu.stage2_tlb.walker.pwrStateResidencyTicks::UNDEFINED 987140629653                       # Cumulative time (in ticks) in various power states
system.cpu.dcache.pwrStateResidencyTicks::UNDEFINED 987140629653                       # Cumulative time (in ticks) in various power states
system.cpu.dcache.demand_hits::.cpu.data     65309162                       # number of demand (read+write) hits
system.cpu.dcache.demand_hits::total         65309162                       # number of demand (read+write) hits
system.cpu.dcache.overall_hits::.cpu.data     65309191                       # number of overall hits
system.cpu.dcache.overall_hits::total        65309191                       # number of overall hits
system.cpu.dcache.demand_misses::.cpu.data     21071563                       # number of demand (read+write) misses
system.cpu.dcache.demand_misses::total       21071563                       # number of demand (read+write) misses
system.cpu.dcache.overall_misses::.cpu.data     21071604                       # number of overall misses
system.cpu.dcache.overall_misses::total      21071604                       # number of overall misses
system.cpu.dcache.demand_miss_latency::.cpu.data 1853662015156                       # number of demand (read+write) miss cycles
system.cpu.dcache.demand_miss_latency::total 1853662015156                       # number of demand (read+write) miss cycles
system.cpu.dcache.overall_miss_latency::.cpu.data 1853662015156                       # number of overall miss cycles
system.cpu.dcache.overall_miss_latency::total 1853662015156                       # number of overall miss cycles
system.cpu.dcache.demand_accesses::.cpu.data     86380725                       # number of demand (read+write) accesses
system.cpu.dcache.demand_accesses::total     86380725                       # number of demand (read+write) accesses
system.cpu.dcache.overall_accesses::.cpu.data     86380795                       # number of overall (read+write) accesses
system.cpu.dcache.overall_accesses::total     86380795                       # number of overall (read+write) accesses
system.cpu.dcache.demand_miss_rate::.cpu.data     0.243938                       # miss rate for demand accesses
system.cpu.dcache.demand_miss_rate::total     0.243938                       # miss rate for demand accesses
system.cpu.dcache.overall_miss_rate::.cpu.data     0.243939                       # miss rate for overall accesses
system.cpu.dcache.overall_miss_rate::total     0.243939                       # miss rate for overall accesses
system.cpu.dcache.demand_avg_miss_latency::.cpu.data 87969.839502                       # average overall miss latency
system.cpu.dcache.demand_avg_miss_latency::total 87969.839502                       # average overall miss latency
system.cpu.dcache.overall_avg_miss_latency::.cpu.data 87969.668335                       # average overall miss latency
system.cpu.dcache.overall_avg_miss_latency::total 87969.668335                       # average overall miss latency
system.cpu.dcache.blocked_cycles::no_mshrs          101                       # number of cycles access was blocked
system.cpu.dcache.blocked_cycles::no_targets            0                       # number of cycles access was blocked
system.cpu.dcache.blocked::no_mshrs                 2                       # number of cycles access was blocked
system.cpu.dcache.blocked::no_targets               0                       # number of cycles access was blocked
system.cpu.dcache.avg_blocked_cycles::no_mshrs    50.500000                       # average number of cycles each access was blocked
system.cpu.dcache.avg_blocked_cycles::no_targets          nan                       # average number of cycles each access was blocked
system.cpu.dcache.writebacks::.writebacks     10536059                       # number of writebacks
system.cpu.dcache.writebacks::total          10536059                       # number of writebacks
system.cpu.dcache.demand_mshr_hits::.cpu.data     10520878                       # number of demand (read+write) MSHR hits
system.cpu.dcache.demand_mshr_hits::total     10520878                       # number of demand (read+write) MSHR hits
system.cpu.dcache.overall_mshr_hits::.cpu.data     10520878                       # number of overall MSHR hits
system.cpu.dcache.overall_mshr_hits::total     10520878                       # number of overall MSHR hits
system.cpu.dcache.demand_mshr_misses::.cpu.data     10550685                       # number of demand (read+write) MSHR misses
system.cpu.dcache.demand_mshr_misses::total     10550685                       # number of demand (read+write) MSHR misses
system.cpu.dcache.overall_mshr_misses::.cpu.data     10550726                       # number of overall MSHR misses
system.cpu.dcache.overall_mshr_misses::total     10550726                       # number of overall MSHR misses
system.cpu.dcache.demand_mshr_miss_latency::.cpu.data 913355668942                       # number of demand (read+write) MSHR miss cycles
system.cpu.dcache.demand_mshr_miss_latency::total 913355668942                       # number of demand (read+write) MSHR miss cycles
system.cpu.dcache.overall_mshr_miss_latency::.cpu.data 913359175361                       # number of overall MSHR miss cycles
system.cpu.dcache.overall_mshr_miss_latency::total 913359175361                       # number of overall MSHR miss cycles
system.cpu.dcache.demand_mshr_miss_rate::.cpu.data     0.122142                       # mshr miss rate for demand accesses
system.cpu.dcache.demand_mshr_miss_rate::total     0.122142                       # mshr miss rate for demand accesses
system.cpu.dcache.overall_mshr_miss_rate::.cpu.data     0.122142                       # mshr miss rate for overall accesses
system.cpu.dcache.overall_mshr_miss_rate::total     0.122142                       # mshr miss rate for overall accesses
system.cpu.dcache.demand_avg_mshr_miss_latency::.cpu.data 86568.376266                       # average overall mshr miss latency
system.cpu.dcache.demand_avg_mshr_miss_latency::total 86568.376266                       # average overall mshr miss latency
system.cpu.dcache.overall_avg_mshr_miss_latency::.cpu.data 86568.372201                       # average overall mshr miss latency
system.cpu.dcache.overall_avg_mshr_miss_latency::total 86568.372201                       # average overall mshr miss latency
system.cpu.dcache.replacements               10548678                       # number of replacements
system.cpu.dcache.ReadReq_hits::.cpu.data      2019793                       # number of ReadReq hits
system.cpu.dcache.ReadReq_hits::total         2019793                       # number of ReadReq hits
system.cpu.dcache.ReadReq_misses::.cpu.data        24288                       # number of ReadReq misses
system.cpu.dcache.ReadReq_misses::total         24288                       # number of ReadReq misses
system.cpu.dcache.ReadReq_miss_latency::.cpu.data    720958299                       # number of ReadReq miss cycles
system.cpu.dcache.ReadReq_miss_latency::total    720958299                       # number of ReadReq miss cycles
system.cpu.dcache.ReadReq_accesses::.cpu.data      2044081                       # number of ReadReq accesses(hits+misses)
system.cpu.dcache.ReadReq_accesses::total      2044081                       # number of ReadReq accesses(hits+misses)
system.cpu.dcache.ReadReq_miss_rate::.cpu.data     0.011882                       # miss rate for ReadReq accesses
system.cpu.dcache.ReadReq_miss_rate::total     0.011882                       # miss rate for ReadReq accesses
system.cpu.dcache.ReadReq_avg_miss_latency::.cpu.data 29683.724432                       # average ReadReq miss latency
system.cpu.dcache.ReadReq_avg_miss_latency::total 29683.724432                       # average ReadReq miss latency
system.cpu.dcache.ReadReq_mshr_hits::.cpu.data           31                       # number of ReadReq MSHR hits
system.cpu.dcache.ReadReq_mshr_hits::total           31                       # number of ReadReq MSHR hits
system.cpu.dcache.ReadReq_mshr_misses::.cpu.data        24257                       # number of ReadReq MSHR misses
system.cpu.dcache.ReadReq_mshr_misses::total        24257                       # number of ReadReq MSHR misses
system.cpu.dcache.ReadReq_mshr_miss_latency::.cpu.data    686793892                       # number of ReadReq MSHR miss cycles
system.cpu.dcache.ReadReq_mshr_miss_latency::total    686793892                       # number of ReadReq MSHR miss cycles
system.cpu.dcache.ReadReq_mshr_miss_rate::.cpu.data     0.011867                       # mshr miss rate for ReadReq accesses
system.cpu.dcache.ReadReq_mshr_miss_rate::total     0.011867                       # mshr miss rate for ReadReq accesses
system.cpu.dcache.ReadReq_avg_mshr_miss_latency::.cpu.data 28313.224719                       # average ReadReq mshr miss latency
system.cpu.dcache.ReadReq_avg_mshr_miss_latency::total 28313.224719                       # average ReadReq mshr miss latency
system.cpu.dcache.WriteReq_hits::.cpu.data     63289369                       # number of WriteReq hits
system.cpu.dcache.WriteReq_hits::total       63289369                       # number of WriteReq hits
system.cpu.dcache.WriteReq_misses::.cpu.data     21047275                       # number of WriteReq misses
system.cpu.dcache.WriteReq_misses::total     21047275                       # number of WriteReq misses
system.cpu.dcache.WriteReq_miss_latency::.cpu.data 1852941056857                       # number of WriteReq miss cycles
system.cpu.dcache.WriteReq_miss_latency::total 1852941056857                       # number of WriteReq miss cycles
system.cpu.dcache.WriteReq_accesses::.cpu.data     84336644                       # number of WriteReq accesses(hits+misses)
system.cpu.dcache.WriteReq_accesses::total     84336644                       # number of WriteReq accesses(hits+misses)
system.cpu.dcache.WriteReq_miss_rate::.cpu.data     0.249563                       # miss rate for WriteReq accesses
system.cpu.dcache.WriteReq_miss_rate::total     0.249563                       # miss rate for WriteReq accesses
system.cpu.dcache.WriteReq_avg_miss_latency::.cpu.data 88037.100140                       # average WriteReq miss latency
system.cpu.dcache.WriteReq_avg_miss_latency::total 88037.100140                       # average WriteReq miss latency
system.cpu.dcache.WriteReq_mshr_hits::.cpu.data     10520847                       # number of WriteReq MSHR hits
system.cpu.dcache.WriteReq_mshr_hits::total     10520847                       # number of WriteReq MSHR hits
system.cpu.dcache.WriteReq_mshr_misses::.cpu.data     10526428                       # number of WriteReq MSHR misses
system.cpu.dcache.WriteReq_mshr_misses::total     10526428                       # number of WriteReq MSHR misses
system.cpu.dcache.WriteReq_mshr_miss_latency::.cpu.data 912668875050                       # number of WriteReq MSHR miss cycles
system.cpu.dcache.WriteReq_mshr_miss_latency::total 912668875050                       # number of WriteReq MSHR miss cycles
system.cpu.dcache.WriteReq_mshr_miss_rate::.cpu.data     0.124814                       # mshr miss rate for WriteReq accesses
system.cpu.dcache.WriteReq_mshr_miss_rate::total     0.124814                       # mshr miss rate for WriteReq accesses
system.cpu.dcache.WriteReq_avg_mshr_miss_latency::.cpu.data 86702.618880                       # average WriteReq mshr miss latency
system.cpu.dcache.WriteReq_avg_mshr_miss_latency::total 86702.618880                       # average WriteReq mshr miss latency
system.cpu.dcache.SoftPFReq_hits::.cpu.data           29                       # number of SoftPFReq hits
system.cpu.dcache.SoftPFReq_hits::total            29                       # number of SoftPFReq hits
system.cpu.dcache.SoftPFReq_misses::.cpu.data           41                       # number of SoftPFReq misses
system.cpu.dcache.SoftPFReq_misses::total           41                       # number of SoftPFReq misses
system.cpu.dcache.SoftPFReq_accesses::.cpu.data           70                       # number of SoftPFReq accesses(hits+misses)
system.cpu.dcache.SoftPFReq_accesses::total           70                       # number of SoftPFReq accesses(hits+misses)
system.cpu.dcache.SoftPFReq_miss_rate::.cpu.data     0.585714                       # miss rate for SoftPFReq accesses
system.cpu.dcache.SoftPFReq_miss_rate::total     0.585714                       # miss rate for SoftPFReq accesses
system.cpu.dcache.SoftPFReq_mshr_misses::.cpu.data           41                       # number of SoftPFReq MSHR misses
system.cpu.dcache.SoftPFReq_mshr_misses::total           41                       # number of SoftPFReq MSHR misses
system.cpu.dcache.SoftPFReq_mshr_miss_latency::.cpu.data      3506419                       # number of SoftPFReq MSHR miss cycles
system.cpu.dcache.SoftPFReq_mshr_miss_latency::total      3506419                       # number of SoftPFReq MSHR miss cycles
system.cpu.dcache.SoftPFReq_mshr_miss_rate::.cpu.data     0.585714                       # mshr miss rate for SoftPFReq accesses
system.cpu.dcache.SoftPFReq_mshr_miss_rate::total     0.585714                       # mshr miss rate for SoftPFReq accesses
system.cpu.dcache.SoftPFReq_avg_mshr_miss_latency::.cpu.data 85522.414634                       # average SoftPFReq mshr miss latency
system.cpu.dcache.SoftPFReq_avg_mshr_miss_latency::total 85522.414634                       # average SoftPFReq mshr miss latency
system.cpu.dcache.LoadLockedReq_hits::.cpu.data           33                       # number of LoadLockedReq hits
system.cpu.dcache.LoadLockedReq_hits::total           33                       # number of LoadLockedReq hits
system.cpu.dcache.LoadLockedReq_misses::.cpu.data            1                       # number of LoadLockedReq misses
system.cpu.dcache.LoadLockedReq_misses::total            1                       # number of LoadLockedReq misses
system.cpu.dcache.LoadLockedReq_miss_latency::.cpu.data        94714                       # number of LoadLockedReq miss cycles
system.cpu.dcache.LoadLockedReq_miss_latency::total        94714                       # number of LoadLockedReq miss cycles
system.cpu.dcache.LoadLockedReq_accesses::.cpu.data           34                       # number of LoadLockedReq accesses(hits+misses)
system.cpu.dcache.LoadLockedReq_accesses::total           34                       # number of LoadLockedReq accesses(hits+misses)
system.cpu.dcache.LoadLockedReq_miss_rate::.cpu.data     0.029412                       # miss rate for LoadLockedReq accesses
system.cpu.dcache.LoadLockedReq_miss_rate::total     0.029412                       # miss rate for LoadLockedReq accesses
system.cpu.dcache.LoadLockedReq_avg_miss_latency::.cpu.data        94714                       # average LoadLockedReq miss latency
system.cpu.dcache.LoadLockedReq_avg_miss_latency::total        94714                       # average LoadLockedReq miss latency
system.cpu.dcache.LoadLockedReq_mshr_misses::.cpu.data            1                       # number of LoadLockedReq MSHR misses
system.cpu.dcache.LoadLockedReq_mshr_misses::total            1                       # number of LoadLockedReq MSHR misses
system.cpu.dcache.LoadLockedReq_mshr_miss_latency::.cpu.data        93380                       # number of LoadLockedReq MSHR miss cycles
system.cpu.dcache.LoadLockedReq_mshr_miss_latency::total        93380                       # number of LoadLockedReq MSHR miss cycles
system.cpu.dcache.LoadLockedReq_mshr_miss_rate::.cpu.data     0.029412                       # mshr miss rate for LoadLockedReq accesses
system.cpu.dcache.LoadLockedReq_mshr_miss_rate::total     0.029412                       # mshr miss rate for LoadLockedReq accesses
system.cpu.dcache.LoadLockedReq_avg_mshr_miss_latency::.cpu.data        93380                       # average LoadLockedReq mshr miss latency
system.cpu.dcache.LoadLockedReq_avg_mshr_miss_latency::total        93380                       # average LoadLockedReq mshr miss latency
system.cpu.dcache.StoreCondReq_hits::.cpu.data           34                       # number of StoreCondReq hits
system.cpu.dcache.StoreCondReq_hits::total           34                       # number of StoreCondReq hits
system.cpu.dcache.StoreCondReq_accesses::.cpu.data           34                       # number of StoreCondReq accesses(hits+misses)
system.cpu.dcache.StoreCondReq_accesses::total           34                       # number of StoreCondReq accesses(hits+misses)
system.cpu.dcache.tags.pwrStateResidencyTicks::UNDEFINED 987140629653                       # Cumulative time (in ticks) in various power states
system.cpu.dcache.tags.tagsinuse          2046.653704                       # Cycle average of tags in use
system.cpu.dcache.tags.total_refs            75859984                       # Total number of references to valid blocks.
system.cpu.dcache.tags.sampled_refs          10550726                       # Sample count of references to valid blocks.
system.cpu.dcache.tags.avg_refs              7.190025                       # Average number of references to valid blocks.
system.cpu.dcache.tags.warmup_cycle            192096                       # Cycle when the warmup percentage was hit.
system.cpu.dcache.tags.occ_blocks::.cpu.data  2046.653704                       # Average occupied blocks per requestor
system.cpu.dcache.tags.occ_percent::.cpu.data     0.999343                       # Average percentage of cache occupancy
system.cpu.dcache.tags.occ_percent::total     0.999343                       # Average percentage of cache occupancy
system.cpu.dcache.tags.occ_task_id_blocks::1024         2048                       # Occupied blocks per task id
system.cpu.dcache.tags.age_task_id_blocks_1024::0          109                       # Occupied blocks per task id
system.cpu.dcache.tags.age_task_id_blocks_1024::1          965                       # Occupied blocks per task id
system.cpu.dcache.tags.age_task_id_blocks_1024::2          974                       # Occupied blocks per task id
system.cpu.dcache.tags.occ_task_id_percent::1024            1                       # Percentage of cache occupancy per task id
system.cpu.dcache.tags.tag_accesses          96931589                       # Number of tag accesses
system.cpu.dcache.tags.data_accesses         96931589                       # Number of data accesses
system.cpu.itb.walker.pwrStateResidencyTicks::UNDEFINED 987140629653                       # Cumulative time (in ticks) in various power states
system.cpu.itb.stage2_mmu.stage2_tlb.walker.pwrStateResidencyTicks::UNDEFINED 987140629653                       # Cumulative time (in ticks) in various power states

---------- End Simulation Statistics   ----------
